2020-10-02T10:59:02,741  INFO Gbl:63 JVM: 11.0.8; Oracle Corporation; mixed mode; 64-bit
2020-10-02T10:59:02,745  INFO Gbl:67 OS: Windows 10; 10.0; amd64
2020-10-02T10:59:02,746  INFO Gbl:70 CPU cores: 4
2020-10-02T10:59:02,754  INFO Gbl:71 max. Memory: 2020.0MB (2118123520B)
2020-10-02T10:59:02,761  INFO Gbl:109 MATSim-Build: r3047d3a9d4b11b836b6f2a61b9605de74420d5a2 (2020-06-04 11:51:49)
2020-10-02T10:59:02,787  INFO ControlerListenerManagerImpl:107 calling notifyStartup on org.matsim.guice.DependencyGraphControlerListener
2020-10-02T10:59:02,832  INFO MemoryObserver:41 used RAM: 18 MB  free: 109 MB  total: 128 MB
2020-10-02T10:59:03,115  INFO ControlerListenerManagerImpl:107 calling notifyStartup on org.matsim.counts.CountsControlerListener
2020-10-02T10:59:03,116  INFO ControlerListenerManagerImpl:107 calling notifyStartup on org.matsim.analysis.ModeStatsControlerListener
2020-10-02T10:59:03,116  INFO ControlerListenerManagerImpl:107 calling notifyStartup on org.matsim.analysis.ScoreStatsControlerListener
2020-10-02T10:59:03,117  INFO ControlerListenerManagerImpl:110 all ControlerStartupListeners called.
2020-10-02T10:59:03,118  INFO ControlerUtils:79 config dump before iterations start
2020-10-02T10:59:03,287  INFO ControlerUtils:83 

<?xml version="1.0" encoding="UTF-8"?>
<!DOCTYPE config SYSTEM "http://www.matsim.org/files/dtd/config_v2.dtd">
<config>
	<module name="JDEQSim" >
		<param name="carSize" value="7.5" />
		<param name="endTime" value="undefined" />
		<param name="flowCapacityFactor" value="1.0" />
		<param name="gapTravelSpeed" value="15.0" />
		<param name="minimumInFlowCapacity" value="1800.0" />
		<param name="squeezeTime" value="1800.0" />
		<param name="storageCapacityFactor" value="1.0" />
	</module>
	<module name="SBBPt" >
		<!-- (iterationNumber % createLinkEventsInterval) == 0 defines in which iterations linkEnter- and linkLeave-events are created,
				"useful for visualization or analysis purposes. Defaults to 0. `0' disables the creation of events completely. -->
		<param name="createLinkEventsInterval" value="1" />
		<!-- Leg modes used by the created transit drivers that should be simulated strictly according to the schedule. -->
		<param name="deterministicServiceModes" value="bus" />
	</module>
	<module name="TimeAllocationMutator" >
		<!-- Default:true; Defines whether time mutation changes an activity's duration. -->
		<param name="mutationAffectsDuration" value="true" />
		<!-- Default:1800.0; Defines how many seconds a time mutation can maximally shift a time. -->
		<param name="mutationRange" value="1800.0" />
	</module>
	<module name="changeMode" >
		<!-- Defines whether car availability is considered be considered or not. An agent has no car only if it has no license, or never access to a car. Default: true -->
		<param name="ignoreCarAvailability" value="true" />
		<!-- Defines the mode switch behavior. Possible values [fromAllModesToSpecifiedModes, fromSpecifiedModesToSpecifiedModes] Default: fromSpecifiedModesToSpecifiedModes. -->
		<param name="modeSwitchBehavior" value="fromSpecifiedModesToSpecifiedModes" />
		<!-- Defines all the modes available, including chain-based modes, seperated by commas -->
		<param name="modes" value="car,pt" />
	</module>
	<module name="controler" >
		<!-- Compression algorithm to use when writing out data to files. Possible values: [none, gzip, lz4, zst] -->
		<param name="compressionType" value="gzip" />
		<!-- Sets whether graphs showing some analyses should automatically be generated during the simulation. The generation of graphs usually takes a small amount of time that does not have any weight in big simulations, but add a significant overhead in smaller runs or in test cases where the graphical output is not even requested. -->
		<param name="createGraphs" value="true" />
		<!-- true if at the end of a run, plans, network, config etc should be dumped to a file -->
		<param name="dumpDataAtEnd" value="true" />
		<!-- Default=false. If enabled, the router takes travel times needed for turning moves into account. Cannot be used if the (Fast)AStarLandmarks routing or TravelTimeCalculator.separateModes is enabled. -->
		<param name="enableLinkToLinkRouting" value="false" />
		<!-- Default=xml; Specifies the file format for writing events. Currently supported: [xml, pb, json]
		Multiple values can be specified separated by commas (','). -->
		<param name="eventsFileFormat" value="xml" />
		<!-- Default=0. First Iteration of a simulation. -->
		<param name="firstIteration" value="0" />
		<!-- Default=1000. Last Iteration of a simulation. -->
		<param name="lastIteration" value="3" />
		<!-- Defines which mobility simulation will be used. Currently supported: qsim JDEQSim 
		Depending on the chosen mobsim, you'll have to add additional config modules to configure the corresponding mobsim.
		For 'qsim', add a module 'qsim' to the config. -->
		<param name="mobsim" value="qsim" />
		<param name="outputDirectory" value="C:/Users/ChengxiL/git/scenariosGunnar/input-data/stockholm/bicycles/testScenario/outputBicyclePT" />
		<!-- Possible values: failIfDirectoryExists, overwriteExistingFiles, deleteDirectoryIfExists -->
		<param name="overwriteFiles" value="deleteDirectoryIfExists" />
		<!-- The type of routing (least cost path) algorithm used, may have the values: Dijkstra, FastDijkstra, AStarLandmarks or FastAStarLandmarks -->
		<param name="routingAlgorithmType" value="AStarLandmarks" />
		<!-- An identifier for the current run which is used as prefix for output files and mentioned in output xml files etc. -->
		<param name="runId" value="null" />
		<!-- Comma-separated list of visualizer output file formats. `transims', `googleearth', and `otfvis'. -->
		<param name="snapshotFormat" value="" />
		<!-- iterationNumber % writeEventsInterval == 0 defines in which iterations events are written to a file. `0' disables events writing completely. -->
		<param name="writeEventsInterval" value="10" />
		<!-- iterationNumber % writePlansInterval == 0 defines (hopefully) in which iterations plans are written to a file. `0' disables plans writing completely.  Some plans in early iterations are always written -->
		<param name="writePlansInterval" value="10" />
		<!-- iterationNumber % writeSnapshotsInterval == 0 defines in which iterations snapshots are written to a file. `0' disables snapshots writing completely -->
		<param name="writeSnapshotsInterval" value="1" />
		<!-- iterationNumber % writeEventsInterval == 0 defines in which iterations trips CSV are written to a file. `0' disables trips writing completely. -->
		<param name="writeTripsInterval" value="10" />
	</module>
	<module name="counts" >
		<!-- Transport modes that will be respected for the counts comparison. 'car' is default, which includes also bussed from the pt simulation module. Use this parameter in combination with 'filterModes' = true! -->
		<param name="analyzedModes" value="car" />
		<!-- Specifies over how many iterations the link volumes should be averaged that are used for the counts comparison. Use 1 or 0 to only use the link volumes of a single iteration. This values cannot be larger than the value specified for writeCountsInterval -->
		<param name="averageCountsOverIterations" value="5" />
		<!-- factor by which to re-scale the simulated values.  necessary when simulation runs with something different from 100%.  needs to be adapted manually -->
		<param name="countsScaleFactor" value="1.0" />
		<!-- distance to distanceFilterCenterNode to include counting stations. The unit of distance is the Euclidean distance implied by the coordinate system -->
		<param name="distanceFilter" value="null" />
		<!-- node id for center node of distance filter -->
		<param name="distanceFilterCenterNode" value="null" />
		<!-- If true, link counts from legs performed on modes not included in the 'analyzedModes' parameter are ignored. -->
		<param name="filterModes" value="false" />
		<!-- The Coordinates Reference System in which the coordinates are expressed in the input file. At import, the coordinates will be converted to the coordinate system defined in "global", and willbe converted back at export. If not specified, no conversion happens. -->
		<param name="inputCRS" value="null" />
		<!-- input file name to counts package -->
		<param name="inputCountsFile" value="null" />
		<!-- possible values: `html', `kml', `txt', `all' -->
		<param name="outputformat" value="txt" />
		<!-- Specifies how often the counts comparison should be calculated and written. -->
		<param name="writeCountsInterval" value="10" />
	</module>
	<module name="facilities" >
		<!-- This defines how facilities should be created. Possible values: none fromFile setInScenario onePerActivityLinkInPlansFile onePerActivityLinkInPlansFileExceptWhenCoordinatesAreGiven onePerActivityLocationInPlansFile  -->
		<param name="facilitiesSource" value="none" />
		<!-- A prefix to be used for auto-generated IDs. -->
		<param name="idPrefix" value="f_auto_" />
		<!-- The Coordinates Reference System in which the coordinates are expressed in the input file. At import, the coordinates will be converted to the coordinate system defined in "global", and willbe converted back at export. If not specified, no conversion happens. -->
		<param name="inputCRS" value="null" />
		<param name="inputFacilitiesFile" value="null" />
		<param name="inputFacilityAttributesFile" value="null" />
		<param name="insistingOnUsingDeprecatedFacilitiesAttributeFile" value="false" />
	</module>
	<module name="global" >
		<param name="coordinateSystem" value="Atlantis" />
		<param name="defaultDelimiter" value=";" />
		<param name="insistingOnDeprecatedConfigVersion" value="true" />
		<!-- "global" number of threads.  This number is used, e.g., for replanning, but NOT in the mobsim.  This can typically be set to as many cores as you have available, or possibly even slightly more. -->
		<param name="numberOfThreads" value="2" />
		<param name="randomSeed" value="4711" />
	</module>
	<module name="households" >
		<param name="inputFile" value="null" />
		<param name="inputHouseholdAttributesFile" value="null" />
		<param name="insistingOnUsingDeprecatedHouseholdsAttributeFile" value="false" />
	</module>
	<module name="linkStats" >
		<!-- Specifies over how many iterations the link volumes should be averaged that are used for the link statistics. Use 1 or 0 to only use the link volumes of a single iteration. This values cannot be larger than the value specified for writeLinkStatsInterval -->
		<param name="averageLinkStatsOverIterations" value="5" />
		<!-- Specifies how often the link stats should be calculated and written. Use 0 to disable the generation of link stats. -->
		<param name="writeLinkStatsInterval" value="10" />
	</module>
	<module name="network" >
		<!-- The Coordinates Reference System in which the coordinates are expressed in the input file. At import, the coordinates will be converted to the coordinate system defined in "global", and willbe converted back at export. If not specified, no conversion happens. -->
		<param name="inputCRS" value="null" />
		<param name="inputChangeEventsFile" value="null" />
		<param name="inputNetworkFile" value="C:/Users/ChengxiL/git/scenariosGunnar/input-data/stockholm/bicycles/testScenario/transitBicycleNetwork_test.xml" />
		<param name="laneDefinitionsFile" value="null" />
		<param name="timeVariantNetwork" value="false" />
	</module>
	<module name="parallelEventHandling" >
		<!-- Estimated number of events during mobsim run. An optional optimization hint for the framework. -->
		<param name="estimatedNumberOfEvents" value="null" />
		<!-- Number of threads for parallel events handler. _null_ means the framework decides by itself. 0 is currently not possible. -->
		<param name="numberOfThreads" value="null" />
		<!-- If enabled, each event handler is assigned to its own thread. Note that enabling this feature disabled the numberOfThreads option! This feature is still experimental! -->
		<param name="oneThreadPerHandler" value="false" />
		<!-- If enabled, it is ensured that all events that are created during a time step of the mobility simulation are processed before the next time step is simulated. E.g. neccessary when within-day replanning is used. -->
		<param name="synchronizeOnSimSteps" value="true" />
	</module>
	<module name="planCalcScore" >
		<!-- logit model scale parameter. default: 1.  Has name and default value for historical reasons (see Bryan Raney's phd thesis). -->
		<param name="BrainExpBeta" value="1.0" />
		<param name="PathSizeLogitBeta" value="1.0" />
		<!-- fraction of iterations at which MSA score averaging is started. The matsim theory department suggests to use this together with switching off choice set innovation (where a similar switch exists), but it has not been tested yet. -->
		<param name="fractionOfIterationsToStartScoreMSA" value="null" />
		<!-- new_score = (1-learningRate)*old_score + learningRate * score_from_mobsim.  learning rates close to zero emulate score averaging, but slow down initial convergence -->
		<param name="learningRate" value="1.0" />
		<!-- There used to be a plateau between duration=0 and duration=zeroUtilityDuration. This caused durations to evolve to zero once they were below zeroUtilityDuration, causing problems.  Only use this switch if you need to be backwards compatible with some old results.  (changed nov'13) -->
		<param name="usingOldScoringBelowZeroUtilityDuration" value="false" />
		<!-- write a plans file in each iteration directory which contains what each agent actually did, and the score it received. -->
		<param name="writeExperiencedPlans" value="false" />
		<parameterset type="scoringParameters" >
			<param name="earlyDeparture" value="-0.0" />
			<param name="lateArrival" value="-18.0" />
			<param name="marginalUtilityOfMoney" value="0.015" />
			<param name="performing" value="0.0" />
			<param name="subpopulation" value="null" />
			<param name="utilityOfLineSwitch" value="-0.07" />
			<param name="waiting" value="-0.0" />
			<param name="waitingPt" value="-1.26" />
			<parameterset type="activityParams" >
				<param name="activityType" value="home" />
				<param name="closingTime" value="undefined" />
				<param name="earliestEndTime" value="undefined" />
				<param name="latestStartTime" value="undefined" />
				<param name="minimalDuration" value="undefined" />
				<param name="openingTime" value="undefined" />
				<param name="priority" value="1.0" />
				<param name="scoringThisActivityAtAll" value="true" />
				<!-- typical duration of activity.  needs to be defined and non-zero.  in sec. -->
				<param name="typicalDuration" value="16:00:00" />
				<!-- method to compute score at typical duration.  Options: | uniform | relative | Use uniform for backwards compatibility (all activities same score; higher proba to drop long acts). -->
				<param name="typicalDurationScoreComputation" value="relative" />
			</parameterset>
			<parameterset type="activityParams" >
				<param name="activityType" value="work" />
				<param name="closingTime" value="undefined" />
				<param name="earliestEndTime" value="undefined" />
				<param name="latestStartTime" value="undefined" />
				<param name="minimalDuration" value="undefined" />
				<param name="openingTime" value="undefined" />
				<param name="priority" value="1.0" />
				<param name="scoringThisActivityAtAll" value="true" />
				<param name="typicalDuration" value="08:00:00" />
				<param name="typicalDurationScoreComputation" value="relative" />
			</parameterset>
			<parameterset type="modeParams" >
				<!-- [utils] alternative-specific constant.  Normally per trip, but that is probably buggy for multi-leg trips. -->
				<param name="constant" value="0.433" />
				<!-- [money] daily monetary constant. default=0 to be backwards compatible -->
				<param name="dailyMonetaryConstant" value="0.0" />
				<!-- [utils] daily utility constant. default=0 to be backwards compatible -->
				<param name="dailyUtilityConstant" value="0.0" />
				<!-- [utils/m] utility of traveling (e.g. walking or driving) per m, normally negative.  this is on top of the time (dis)utility. -->
				<param name="marginalUtilityOfDistance_util_m" value="-1.82E-4" />
				<!-- [utils/hr] additional marginal utility of traveling.  normally negative.  this comes on top of the opportunity cost of time -->
				<param name="marginalUtilityOfTraveling_util_hr" value="-0.0" />
				<param name="mode" value="bike" />
				<!-- [unit_of_money/m] conversion of distance into money. Normally negative. -->
				<param name="monetaryDistanceRate" value="-0.0064" />
			</parameterset>
			<parameterset type="modeParams" >
				<param name="constant" value="0.433" />
				<param name="dailyMonetaryConstant" value="0.0" />
				<param name="dailyUtilityConstant" value="0.0" />
				<param name="marginalUtilityOfDistance_util_m" value="-1.82E-4" />
				<param name="marginalUtilityOfTraveling_util_hr" value="-0.0" />
				<param name="mode" value="car" />
				<param name="monetaryDistanceRate" value="-0.0064" />
			</parameterset>
			<parameterset type="modeParams" >
				<param name="constant" value="-0.758" />
				<param name="dailyMonetaryConstant" value="0.0" />
				<param name="dailyUtilityConstant" value="0.0" />
				<param name="marginalUtilityOfDistance_util_m" value="-0.0" />
				<param name="marginalUtilityOfTraveling_util_hr" value="-0.84" />
				<param name="mode" value="walk" />
				<param name="monetaryDistanceRate" value="-0.0064" />
			</parameterset>
			<parameterset type="modeParams" >
				<param name="constant" value="-0.758" />
				<param name="dailyMonetaryConstant" value="0.0" />
				<param name="dailyUtilityConstant" value="0.0" />
				<param name="marginalUtilityOfDistance_util_m" value="0.0" />
				<param name="marginalUtilityOfTraveling_util_hr" value="-0.84" />
				<param name="mode" value="busPassenger" />
				<param name="monetaryDistanceRate" value="-0.0017067" />
			</parameterset>
			<parameterset type="modeParams" >
				<param name="constant" value="-0.758" />
				<param name="dailyMonetaryConstant" value="0.0" />
				<param name="dailyUtilityConstant" value="0.0" />
				<param name="marginalUtilityOfDistance_util_m" value="0.0" />
				<param name="marginalUtilityOfTraveling_util_hr" value="-0.84" />
				<param name="mode" value="pt" />
				<param name="monetaryDistanceRate" value="-0.0017067" />
			</parameterset>
		</parameterset>
	</module>
	<module name="plans" >
		<!-- String: minOfDurationAndEndTime tryEndTimeThenDuration endTimeOnly. Anything besides minOfDurationAndEndTime will internally use a different (simpler) version of the TimeAllocationMutator. -->
		<param name="activityDurationInterpretation" value="tryEndTimeThenDuration" />
		<!-- Possible values: reject, useMainModeIdentifier -->
		<param name="handlingOfPlansWithoutRoutingMode" value="useMainModeIdentifier" />
		<!-- The Coordinates Reference System in which the coordinates are expressed in the input file. At import, the coordinates will be converted to the coordinate system defined in "global", and willbe converted back at export. If not specified, no conversion happens. -->
		<param name="inputCRS" value="null" />
		<param name="inputPersonAttributesFile" value="null" />
		<param name="inputPlansFile" value="C:/Users/ChengxiL/git/scenariosGunnar/input-data/stockholm/bicycles/testScenario/transitBicyclePlan_test.xml" />
		<param name="insistingOnUsingDeprecatedPersonAttributeFile" value="false" />
		<!-- Defines how routes are stored in memory. Currently supported: LinkNetworkRoute, CompressedNetworkRoute. -->
		<param name="networkRouteType" value="LinkNetworkRoute" />
		<!-- (not tested) will remove plan attributes that are presumably not used, such as activityStartTime. default=false. Use with Caution! -->
		<param name="removingUnnecessaryPlanAttributes" value="false" />
	</module>
	<module name="planscalcroute" >
		<!-- Some typical teleportation routing params are set by default, such as for walk and bike.  Setting this switch to "true" will clear them.  Note that this will also clear settings for helper modes such as for non_network_walk -->
		<param name="clearDefaultTeleportedModeParams" value="true" />
		<!-- All the modes for which the router is supposed to generate network routes (like car) -->
		<param name="networkModes" value="car,bike" />
		<!-- strength of the randomness for the utility of money in routing under toll.  Leads to Pareto-optimal route with randomly drawn money-vs-other-attributes tradeoff. Technically the width parameter of a log-normal distribution. 3.0 seems to be a good value.  -->
		<param name="routingRandomness" value="3.0" />
		<parameterset type="teleportedModeParameters" >
			<param name="beelineDistanceFactor" value="1.3" />
			<param name="mode" value="walk" />
			<!-- Free-speed factor for a teleported mode. Travel time = teleportedModeFreespeedFactor * <freespeed car travel time>. Insert a line like this for every such mode. Please do not set teleportedModeFreespeedFactor as well as teleportedModeSpeed for the same mode, but if you do, +teleportedModeFreespeedFactor wins over teleportedModeSpeed. -->
			<param name="teleportedModeFreespeedFactor" value="null" />
			<!-- Speed for a teleported mode. Travel time = (<beeline distance> * beelineDistanceFactor) / teleportedModeSpeed. Insert a line like this for every such mode. -->
			<param name="teleportedModeSpeed" value="0.1" />
		</parameterset>
	</module>
	<module name="ptCounts" >
		<!-- factor by which to re-scale the simulated values.  necessary when simulation runs with something different from 100%.  needs to be adapted manually -->
		<param name="countsScaleFactor" value="1.0" />
		<!-- distance to distanceFilterCenterNode to include counting stations. The unit of distance is the Euclidean distance implied by the coordinate system -->
		<param name="distanceFilter" value="null" />
		<!-- node id for center node of distance filter -->
		<param name="distanceFilterCenterNode" value="null" />
		<!-- input file containing the alighting (getting off) counts for pt -->
		<param name="inputAlightCountsFile" value="null" />
		<!-- input file containing the boarding (getting on) counts for pt -->
		<param name="inputBoardCountsFile" value="null" />
		<!-- input file containing the occupancy counts for pt -->
		<param name="inputOccupancyCountsFile" value="null" />
		<!-- possible values: `html', `kml', `txt', `all' -->
		<param name="outputformat" value="null" />
		<!-- every how many iterations (starting with 0) counts comparisons are generated -->
		<param name="ptCountsInterval" value="10" />
	</module>
	<module name="qsim" >
		<param name="endTime" value="24:00:00" />
		<param name="flowCapacityFactor" value="1.0" />
		<!-- decides if waiting vehicles enter the network after or before the already driving vehicles were moved. Default: false -->
		<param name="insertingWaitingVehiclesBeforeDrivingVehicles" value="true" />
		<!-- If link dynamics is set as SeepageQ, set to false if all seep modes should perform seepage. Default is true (better option). -->
		<param name="isRestrictingSeepage" value="true" />
		<!-- If link dynamics is set as SeepageQ, set to true if seep mode do not consumes any space on the link. Default is false. -->
		<param name="isSeepModeStorageFree" value="false" />
		<!-- default: FIFO; options: FIFO PassingQ SeepageQ -->
		<param name="linkDynamics" value="FIFO" />
		<!-- The (initial) width of the links of the network. Use positive floating point values. This is used only for visualisation. -->
		<param name="linkWidth" value="30.0" />
		<!-- [comma-separated list] Defines which modes are congested modes. Technically, these are the modes that the departure handler of the netsimengine handles.  Effective cell size, effective lane width, flow capacity factor, and storage capacity factor need to be set with diligence.  Need to be vehicular modes to make sense. -->
		<param name="mainMode" value="car" />
		<!-- Shortens a link in the visualization, i.e. its start and end point are moved into towards the center. Does not affect traffic flow.  -->
		<param name="nodeOffset" value="0.0" />
		<!-- Number of threads used for the QSim.  Note that this setting is independent from the "global" threads setting.  In contrast to earlier versions, the non-parallel special version is no longer there. -->
		<param name="numberOfThreads" value="1" />
		<!-- Boolean. `true': stuck vehicles are removed, aborting the plan; `false': stuck vehicles are forced into the next link. `false' is probably the better choice. -->
		<param name="removeStuckVehicles" value="false" />
		<!-- If link dynamics is set as SeepageQ, set a seep mode. Default is bike. -->
		<param name="seepMode" value="bike" />
		<!-- Possible values: minOfEndtimeAndMobsimFinished, onlyUseEndtime -->
		<param name="simEndtimeInterpretation" value="null" />
		<!-- Options: maxOfStarttimeAndEarliestActivityEnd onlyUseStarttime  -->
		<param name="simStarttimeInterpretation" value="maxOfStarttimeAndEarliestActivityEnd" />
		<!-- snapshotStyle. One of: equiDist queue withHoles withHolesAndShowHoles kinematicWaves  -->
		<param name="snapshotStyle" value="equiDist" />
		<param name="snapshotperiod" value="00:00:00" />
		<param name="startTime" value="undefined" />
		<param name="storageCapacityFactor" value="1.0" />
		<!-- time in seconds.  Time after which the frontmost vehicle on a link is called `stuck' if it does not move. -->
		<param name="stuckTime" value="10.0" />
		<param name="timeStepSize" value="00:00:01" />
		<!-- options: queue withHoles kinematicWaves  -->
		<param name="trafficDynamics" value="queue" />
		<!-- Set this parameter to true if lanes should be used, false if not. -->
		<param name="useLanes" value="false" />
		<!-- If a route does not reference a vehicle, agents will use the vehicle with the same id as their own. -->
		<param name="usePersonIdForMissingVehicleId" value="true" />
		<!-- If false, the qsim accumulates fractional flows up to one flow unit in every time step.  If true, flows are updated only if an agent wants to enter the link or an agent is added to buffer. Default is true. -->
		<param name="usingFastCapacityUpdate" value="true" />
		<!-- if the qsim should use as many runners as there are threads (Christoph's dissertation version) or more of them, together with a thread pool (seems to be faster in some situations, but is not tested). -->
		<param name="usingThreadpool" value="true" />
		<!-- Defines what happens if an agent wants to depart, but the specified vehicle is not available. One of: teleport wait exception  -->
		<param name="vehicleBehavior" value="teleport" />
		<!-- If vehicles should all be the same default vehicle, or come from the vehicles file, or something else.  Possible values:  defaultVehicle modeVehicleTypesFromVehiclesData fromVehiclesData -->
		<param name="vehiclesSource" value="defaultVehicle" />
	</module>
	<module name="strategy" >
		<!-- the external executable will be called with a config file as argument.  This is the pathname to a possible skeleton config, to which additional information will be added.  Can be null. -->
		<param name="ExternalExeConfigTemplate" value="null" />
		<!-- time out value (in seconds) after which matsim will consider the external strategy as failed -->
		<param name="ExternalExeTimeOut" value="3600" />
		<!-- root directory for temporary files generated by the external executable. Provided as a service; I don't think this is used by MATSim. -->
		<param name="ExternalExeTmpFileRootDir" value="null" />
		<!-- fraction of iterations where innovative strategies are switched off.  Something like 0.8 should be good.  E.g. if you run from iteration 400 to iteration 500, innovation is switched off at iteration 480 -->
		<param name="fractionOfIterationsToDisableInnovation" value="Infinity" />
		<!-- maximum number of plans per agent.  ``0'' means ``infinity''.  Currently (2010), ``5'' is a good number -->
		<param name="maxAgentPlanMemorySize" value="1" />
		<!-- strategyName of PlanSelector for plans removal.  Possible defaults: WorstPlanSelector SelectRandom SelectExpBetaForRemoval ChangeExpBetaForRemoval PathSizeLogitSelectorForRemoval . The current default, WorstPlanSelector is not a good choice from a discrete choice theoretical perspective. Alternatives, however, have not been systematically tested. kai, feb'12 -->
		<param name="planSelectorForRemoval" value="WorstPlanSelector" />
		<parameterset type="strategysettings" >
			<!-- iteration after which strategy will be disabled.  most useful for ``innovative'' strategies (new routes, new times, ...). Normally, better use fractionOfIterationsToDisableInnovation -->
			<param name="disableAfterIteration" value="-1" />
			<!-- path to external executable (if applicable) -->
			<param name="executionPath" value="null" />
			<!-- strategyName of strategy.  Possible default names: SelectRandom BestScore KeepLastSelected ChangeExpBeta SelectExpBeta SelectPathSizeLogit      (selectors), ReRouteTimeAllocationMutatorTimeAllocationMutator_ReRouteChangeSingleTripModeChangeTripModeSubtourModeChoice (innovative strategies). -->
			<param name="strategyName" value="ReRoute" />
			<!-- subpopulation to which the strategy applies. "null" refers to the default population, that is, the set of persons for which no explicit subpopulation is defined (ie no subpopulation attribute) -->
			<param name="subpopulation" value="null" />
			<!-- weight of a strategy: for each agent, a strategy will be selected with a probability proportional to its weight -->
			<param name="weight" value="1.0" />
		</parameterset>
		<parameterset type="strategysettings" >
			<param name="disableAfterIteration" value="-1" />
			<param name="executionPath" value="null" />
			<param name="strategyName" value="SubtourModeChoice" />
			<param name="subpopulation" value="null" />
			<param name="weight" value="1.0" />
		</parameterset>
	</module>
	<module name="subtourModeChoice" >
		<!-- Only for backwards compatibility.  Defines if only trips from modes list should change mode, or all trips.  Options: fromAllModesToSpecifiedModes fromSpecifiedModesToSpecifiedModes  -->
		<param name="behavior" value="fromAllModesToSpecifiedModes" />
		<!-- Defines the chain-based modes, seperated by commas -->
		<param name="chainBasedModes" value="" />
		<!-- Defines whether car availability must be considered or not. A agent has no car only if it has no license, or never access to a car -->
		<param name="considerCarAvailability" value="false" />
		<!-- Defines all the modes available, including chain-based modes, seperated by commas -->
		<param name="modes" value="car,busPassenger,walk,bike" />
	</module>
	<module name="swissRailRaptor" >
		<!-- Sets whether intermodal access and egress modes are selected by least cost (default) or randomly chosen out of the available access / egress modes. -->
		<param name="intermodalAccessEgressModeSelection" value="CalcLeastCostModePerStop" />
		<!-- Possible values: Default, Individual -->
		<param name="scoringParameters" value="Default" />
		<param name="transferPenaltyBaseCost" value="0.0" />
		<param name="transferPenaltyCostPerTravelTimeHour" value="0.0" />
		<param name="transferPenaltyMaxCost" value="Infinity" />
		<param name="transferPenaltyMinCost" value="-Infinity" />
		<param name="useIntermodalAccessEgress" value="true" />
		<param name="useModeMappingForPassengers" value="true" />
		<param name="useRangeQuery" value="false" />
		<parameterset type="intermodalAccessEgress" >
			<!-- Radius from the origin / destination coord in which transit stops are searched. Only if less than 2 transit stops are found the search radius is increased step-wise until the maximum search radius set in param radius is reached. -->
			<param name="initialSearchRadius" value="100.0" />
			<!-- If the mode is routed on the network, specify which linkId acts as access link to this stop in the transport modes sub-network. -->
			<param name="linkIdAttribute" value="null" />
			<!-- Radius from the origin / destination coord in which transit stops are accessible by this mode. -->
			<param name="maxRadius" value="200.0" />
			<param name="mode" value="walk" />
			<!-- Name of the person attribute used to figure out if this access/egress mode is available to the person. -->
			<param name="personFilterAttribute" value="null" />
			<!-- Only persons where the filter attribute has the value specified here can use this mode for access or egress. The attribute should be of type String. -->
			<param name="personFilterValue" value="null" />
			<!-- If less than 2 stops were found in initialSearchRadius take the distance of the closest transit stop and add this extension radius to search again.The search radius will not exceed the maximum search radius set in param radius. -->
			<param name="searchExtensionRadius" value="100.0" />
			<!-- Name of the transit stop attribute used to filter stops that should be included in the set of potential stops for access and egress. The attribute should be of type String. 'null' disables the filter and all stops within the specified radius will be used. -->
			<param name="stopFilterAttribute" value="null" />
			<!-- Only stops where the filter attribute has the value specified here will be considered as access or egress stops. -->
			<param name="stopFilterValue" value="null" />
		</parameterset>
		<parameterset type="intermodalAccessEgress" >
			<param name="initialSearchRadius" value="100.0" />
			<param name="linkIdAttribute" value="accessLinkId_bike" />
			<param name="maxRadius" value="300.0" />
			<param name="mode" value="bike" />
			<param name="personFilterAttribute" value="hasBike" />
			<param name="personFilterValue" value="true" />
			<param name="searchExtensionRadius" value="100.0" />
			<param name="stopFilterAttribute" value="bikeAccessible" />
			<param name="stopFilterValue" value="true" />
		</parameterset>
		<parameterset type="modeMapping" >
			<param name="passengerMode" value="busPassenger" />
			<param name="routeMode" value="bus" />
		</parameterset>
	</module>
	<module name="transit" >
		<!-- The Coordinates Reference System in which the coordinates are expressed in the input file. At import, the coordinates will be converted to the coordinate system defined in "global", and willbe converted back at export. If not specified, no conversion happens. -->
		<param name="inputScheduleCRS" value="null" />
		<param name="insistingOnUsingDeprecatedAttributeFiles" value="false" />
		<!-- Optional input file containing additional attributes for transit lines, stored as ObjectAttributes. -->
		<param name="transitLinesAttributesFile" value="null" />
		<!-- Comma-separated list of transportation modes that are handled as transit. Defaults to 'pt'. -->
		<param name="transitModes" value="busPassenger" />
		<!-- Input file containing the transit schedule to be simulated. -->
		<param name="transitScheduleFile" value="C:/Users/ChengxiL/git/scenariosGunnar/input-data/stockholm/bicycles/testScenario/transitSchedule_test.xml" />
		<!-- Optional input file containing additional attributes for transit stop facilities, stored as ObjectAttributes. -->
		<param name="transitStopsAttributesFile" value="null" />
		<!-- Set this parameter to true if transit should be simulated, false if not. -->
		<param name="useTransit" value="true" />
		<param name="usingTransitInMobsim" value="true" />
		<!-- Input file containing the vehicles used by the departures in the transit schedule. -->
		<param name="vehiclesFile" value="C:/Users/ChengxiL/git/scenariosGunnar/input-data/stockholm/bicycles/testScenario/transitVehicle_test.xml" />
	</module>
	<module name="transitRouter" >
		<!-- additional time the router allocates when a line switch happens. Can be interpreted as a 'safety' time that agents need to safely transfer from one line to another -->
		<param name="additionalTransferTime" value="10.0" />
		<!-- Factor with which direct walk generalized cost is multiplied before it is compared to the pt generalized cost.  Set to a very high value to reduce direct walk results. -->
		<param name="directWalkFactor" value="100.0" />
		<!-- step size to increase searchRadius if no stops are found -->
		<param name="extensionRadius" value="200.0" />
		<!-- maximum beeline distance between stops that agents could transfer to by walking -->
		<param name="maxBeelineWalkConnectionDistance" value="100.0" />
		<!-- the radius in which stop locations are searched, given a start or target coordinate -->
		<param name="searchRadius" value="1000.0" />
	</module>
	<module name="travelTimeCalculator" >
		<!-- (only for backwards compatibility; only used if separateModes==false && + filterModes==true)  Transport modes that will be respected by the travel time collector. 'car' is default which includes also buses from the pt simulation module. -->
		<param name="analyzedModes" value="car" />
		<param name="calculateLinkToLinkTravelTimes" value="false" />
		<param name="calculateLinkTravelTimes" value="true" />
		<!-- (only for backwards compatiblity; only used if separateModes==false)  Only modes included in analyzedModes are included. -->
		<param name="filterModes" value="false" />
		<!-- The lenght (in sec) of the time period that is splited into time bins; an additional time bin is created to aggregate all travel times collected after maxTime -->
		<param name="maxTime" value="108000" />
		<!-- (only for backwards compatibility) If false, link travel times are measured and aggregated over all vehicles using the link. -->
		<param name="separateModes" value="true" />
		<!-- How to deal with congested time bins that have no link entry events. `optimistic' assumes free speed (too optimistic); 'experimental_LastMile' is experimental and probably too pessimistic. -->
		<param name="travelTimeAggregator" value="optimistic" />
		<!-- The size of the time bin (in sec) into which the link travel times are aggregated for the router -->
		<param name="travelTimeBinSize" value="900" />
		<!-- possible values: TravelTimeCalculatorArray TravelTimeCalculatorHashMap  -->
		<param name="travelTimeCalculator" value="TravelTimeCalculatorArray" />
		<!-- How to deal with link entry times at different positions during the time bin. Currently supported: average, linearinterpolation -->
		<param name="travelTimeGetter" value="average" />
	</module>
	<module name="vehicles" >
		<param name="vehiclesFile" value="null" />
	</module>
	<module name="vspExperimental" >
		<!-- (do not use except of you have to) There was a problem with pt interaction scoring.  Some people solved it by overwriting the parameters of the pt interaction activity type.  Doing this now throws an Exception.  If you still insist on doing this, set the following to true. -->
		<param name="isAbleToOverwritePtInteractionParams" value="false" />
		<param name="isGeneratingBoardingDeniedEvent" value="false" />
		<!-- if an approximation of the opportunity cost of time is included into the radius calculation for location choice.`true' will be faster, but it is an approximation.  Default is `true'; `false' is available for backwards compatibility. -->
		<param name="isUsingOpportunityCostOfTimeForLocationChoice" value="true" />
		<param name="logitScaleParamForPlansRemoval" value="1.0" />
		<!-- Options: | ignore | info | warn | abort | .  When violating VSP defaults, this results in nothing, logfile infos, logfile warnings, or aborts.  Members of VSP should use `abort' or talk to kai. -->
		<param name="vspDefaultsCheckingLevel" value="ignore" />
		<!-- if true then writes output_events in output directory.  default is `false'. Will only work when lastIteration is multiple of events writing interval -->
		<param name="writingOutputEvents" value="true" />
	</module>

</config>

2020-10-02T10:59:03,292  INFO ControlerUtils:84 Complete config dump done.
2020-10-02T10:59:03,292  INFO ControlerUtils:85 Checking consistency of config...
2020-10-02T10:59:03,293  INFO PlanCalcScoreConfigGroup$ScoringParameterSet:1528 NO OPENING OR CLOSING TIMES DEFINED!

There is no activity type that has an opening *and* closing time (or opening time and late penalty) defined.
This usually means that the activity chains can be shifted by an arbitrary
number of hours without having an effect on the score of the plans, and thus
resulting in wrong results / traffic patterns.
If you are using MATSim without time adaptation, you can ignore this warning.


2020-10-02T10:59:03,300  INFO VspConfigConsistencyCheckerImpl:58 NOT running vsp config consistency check because vsp defaults checking level is set to IGNORE
2020-10-02T10:59:03,421  INFO ControlerUtils:87 Checking consistency of config done.
2020-10-02T10:59:03,421  INFO PrepareForSimImpl:115 Network seems to be multimodal. Create car-only network which is handed over to PersonPrepareForSim.
2020-10-02T10:59:03,423  INFO NetworkImpl:163  node # 1
2020-10-02T10:59:03,423  INFO NetworkImpl:163  node # 4
2020-10-02T10:59:03,424  INFO NetworkImpl:163  node # 16
2020-10-02T10:59:03,424  INFO NetworkImpl:163  node # 64
2020-10-02T10:59:03,434  INFO NetworkImpl:159  link # 1
2020-10-02T10:59:03,435  INFO NetworkImpl:159  link # 4
2020-10-02T10:59:03,435  INFO NetworkImpl:159  link # 16
2020-10-02T10:59:03,436  INFO NetworkImpl:159  link # 64
2020-10-02T10:59:03,439  INFO NetworkImpl:159  link # 256
2020-10-02T10:59:03,487  WARN PrepareForSimImpl:222 'usePersonIdForMissingVehicleId' is deprecated. It will be removed soon.
2020-10-02T10:59:03,488  INFO Counter:69 [VehiclesImpl] added vehicle # 1
2020-10-02T10:59:03,488  INFO Counter:69 [VehiclesImpl] added vehicle # 2
2020-10-02T10:59:03,507  INFO NetworkImpl:163  node # 1
2020-10-02T10:59:03,509  INFO NetworkImpl:163  node # 4
2020-10-02T10:59:03,509  INFO NetworkImpl:163  node # 16
2020-10-02T10:59:03,509  INFO NetworkImpl:163  node # 64
2020-10-02T10:59:03,512  INFO NetworkImpl:159  link # 1
2020-10-02T10:59:03,525  INFO NetworkImpl:159  link # 4
2020-10-02T10:59:03,525  INFO NetworkImpl:159  link # 16
2020-10-02T10:59:03,526  INFO NetworkImpl:159  link # 64
2020-10-02T10:59:03,531  INFO NetworkImpl:159  link # 256
2020-10-02T10:59:03,538  WARN RandomizingTimeDistanceTravelDisutilityFactory:117 There will be no routing randomness. The randomization of the travel disutility requires the travel time cost rate to be different than zero. Continuing anyway.
2020-10-02T10:59:03,541  INFO RandomizingTimeDistanceTravelDisutilityFactory:85  sigma: 3.0; resulting normalization: 0.011108996538242306
2020-10-02T10:59:03,573  INFO PreProcessDijkstra:118 nodes in dead ends: 20 (total nodes: 249). Done in 3 ms
2020-10-02T10:59:03,574  INFO PreProcessLandmarks:112 Putting landmarks on network...
2020-10-02T10:59:03,577  INFO LandmarkerPieSlices:96 Filling sectors...
2020-10-02T10:59:03,583  INFO LandmarkerPieSlices:107 Refining landmarks...
2020-10-02T10:59:03,584  INFO LandmarkerPieSlices:109 done
2020-10-02T10:59:03,586  INFO PreProcessLandmarks:115 done in 9 ms
2020-10-02T10:59:03,586  INFO PreProcessLandmarks:117 Initializing landmarks data
2020-10-02T10:59:03,592  INFO PreProcessLandmarks:129 Calculating distance from each node to each of the 16 landmarks using 2 threads...
2020-10-02T10:59:03,594  INFO PreProcessLandmarks:139 wait for landmarks Calculator to finish...
2020-10-02T10:59:03,646  INFO PreProcessLandmarks:161 done in 52 ms
2020-10-02T10:59:03,658  INFO EventsManagerImpl:158 adding Event-Handler: ch.sbb.matsim.routing.pt.raptor.SwissRailRaptorFactory$$Lambda$176/0x0000000100496440
2020-10-02T10:59:03,659  INFO EventsManagerImpl:162   org.matsim.pt.router.TransitScheduleChangedEventHandler
2020-10-02T10:59:03,659  INFO EventsManagerImpl:221     > org.matsim.pt.router.TransitScheduleChangedEvent
2020-10-02T10:59:03,659  INFO EventsManagerImpl:170 
2020-10-02T10:59:03,659  INFO EventsManagerImpl:158 adding Event-Handler: ch.sbb.matsim.routing.pt.raptor.SwissRailRaptorFactory$$Lambda$176/0x0000000100496440
2020-10-02T10:59:03,659  INFO EventsManagerImpl:162   org.matsim.pt.router.TransitScheduleChangedEventHandler
2020-10-02T10:59:03,660  INFO EventsManagerImpl:221     > org.matsim.pt.router.TransitScheduleChangedEvent
2020-10-02T10:59:03,660  INFO EventsManagerImpl:170 
2020-10-02T10:59:03,662  INFO SwissRailRaptorData:72 Preparing data for SwissRailRaptor...
2020-10-02T10:59:03,680  INFO SwissRailRaptorData:194 SwissRailRaptor data preparation done. Took 0 seconds.
2020-10-02T10:59:03,681  INFO SwissRailRaptorData:195 SwissRailRaptor statistics:  #routes = 1
2020-10-02T10:59:03,681  INFO SwissRailRaptorData:196 SwissRailRaptor statistics:  #departures = 100
2020-10-02T10:59:03,681  INFO SwissRailRaptorData:197 SwissRailRaptor statistics:  #routeStops = 3
2020-10-02T10:59:03,682  INFO SwissRailRaptorData:198 SwissRailRaptor statistics:  #stopFacilities = 3
2020-10-02T10:59:03,682  INFO SwissRailRaptorData:199 SwissRailRaptor statistics:  #transfers (between routeStops) = 0
2020-10-02T10:59:03,685  INFO NetworkImpl:163  node # 1
2020-10-02T10:59:03,686  INFO NetworkImpl:163  node # 4
2020-10-02T10:59:03,686  INFO NetworkImpl:163  node # 16
2020-10-02T10:59:03,686  INFO NetworkImpl:163  node # 64
2020-10-02T10:59:03,687  INFO NetworkImpl:159  link # 1
2020-10-02T10:59:03,687  INFO NetworkImpl:159  link # 4
2020-10-02T10:59:03,687  INFO NetworkImpl:159  link # 16
2020-10-02T10:59:03,688  INFO NetworkImpl:159  link # 64
2020-10-02T10:59:03,689  INFO NetworkImpl:159  link # 256
2020-10-02T10:59:03,699  INFO PreProcessDijkstra:118 nodes in dead ends: 20 (total nodes: 249). Done in 3 ms
2020-10-02T10:59:03,701  INFO PreProcessLandmarks:112 Putting landmarks on network...
2020-10-02T10:59:03,701  INFO LandmarkerPieSlices:96 Filling sectors...
2020-10-02T10:59:03,702  INFO LandmarkerPieSlices:107 Refining landmarks...
2020-10-02T10:59:03,703  INFO LandmarkerPieSlices:109 done
2020-10-02T10:59:03,703  INFO PreProcessLandmarks:115 done in 2 ms
2020-10-02T10:59:03,703  INFO PreProcessLandmarks:117 Initializing landmarks data
2020-10-02T10:59:03,703  INFO PreProcessLandmarks:129 Calculating distance from each node to each of the 16 landmarks using 2 threads...
2020-10-02T10:59:03,704  INFO PreProcessLandmarks:139 wait for landmarks Calculator to finish...
2020-10-02T10:59:03,726  INFO PreProcessLandmarks:161 done in 23 ms
2020-10-02T10:59:03,739  INFO RandomizingTimeDistanceTravelDisutilityFactory:85  sigma: 3.0; resulting normalization: 0.011108996538242306
2020-10-02T10:59:03,754  INFO NetworkImpl:422 building QuadTree for nodes: xrange(674357.6229512892,675008.3627379681); yrange(6579907.541818319,6580647.705674175)
2020-10-02T10:59:03,758  INFO NetworkImpl:431 Building QuadTree took 0.006 seconds.
2020-10-02T10:59:03,818  INFO Counter:69 [PersonPrepareForSim] handled person # 1
2020-10-02T10:59:03,820  INFO Counter:74 [PersonPrepareForSim] handled person # 1
2020-10-02T10:59:03,821  INFO AbstractController:124 ###################################################
2020-10-02T10:59:03,823  INFO AbstractController:125 ### ITERATION 0 BEGINS
2020-10-02T10:59:03,825  INFO ControlerListenerManagerImpl:145 calling notifyIterationStarts on org.matsim.analysis.LegHistogramListener
2020-10-02T10:59:03,825  INFO ControlerListenerManagerImpl:145 calling notifyIterationStarts on org.matsim.analysis.LinkStatsControlerListener
2020-10-02T10:59:03,825  INFO ControlerListenerManagerImpl:145 calling notifyIterationStarts on org.matsim.core.replanning.ReplanningContextImpl
2020-10-02T10:59:03,825  INFO ControlerListenerManagerImpl:145 calling notifyIterationStarts on org.matsim.core.scoring.ScoringFunctionsForPopulation$1
2020-10-02T10:59:03,849  INFO ControlerListenerManagerImpl:145 calling notifyIterationStarts on org.matsim.core.scoring.ExperiencedPlansServiceImpl$1
2020-10-02T10:59:03,850  INFO ControlerListenerManagerImpl:148 [it.0] all ControlerIterationStartsListeners called.
2020-10-02T10:59:03,851  INFO ControlerListenerManagerImpl:224 calling notifyBeforeMobsim on org.matsim.core.controler.corelisteners.EventsHandlingImpl
2020-10-02T10:59:03,852  INFO EventsManagerImpl:184 resetting Event-Handlers
2020-10-02T10:59:03,852  INFO EventsManagerImpl:191   org.matsim.core.trafficmonitoring.TravelTimeCalculator
2020-10-02T10:59:03,853  INFO EventsManagerImpl:191   org.matsim.core.trafficmonitoring.TravelTimeCalculator
2020-10-02T10:59:03,854  INFO EventsManagerImpl:191   org.matsim.core.scoring.EventsToLegsAndActivities
2020-10-02T10:59:03,855  INFO EventsManagerImpl:191   org.matsim.analysis.VolumesAnalyzer
2020-10-02T10:59:03,855  INFO EventsManagerImpl:191   org.matsim.core.scoring.ScoringFunctionsForPopulation
2020-10-02T10:59:03,856  INFO EventsManagerImpl:191   org.matsim.analysis.LegHistogram
2020-10-02T10:59:03,856  INFO EventsManagerImpl:191   org.matsim.analysis.CalcLegTimes
2020-10-02T10:59:03,856  INFO EventsManagerImpl:191   ch.sbb.matsim.routing.pt.raptor.SwissRailRaptorFactory$$Lambda$176/0x0000000100496440
2020-10-02T10:59:03,864  INFO EventsManagerImpl:158 adding Event-Handler: org.matsim.core.events.algorithms.EventWriterXML
2020-10-02T10:59:03,864  INFO EventsManagerImpl:162   org.matsim.core.events.algorithms.EventWriter
2020-10-02T10:59:03,864  INFO EventsManagerImpl:162   org.matsim.core.events.handler.BasicEventHandler
2020-10-02T10:59:03,865  INFO EventsManagerImpl:221     > org.matsim.api.core.v01.events.Event
2020-10-02T10:59:03,865  INFO EventsManagerImpl:170 
2020-10-02T10:59:03,865  INFO EventsManagerImpl:158 adding Event-Handler: org.matsim.core.events.algorithms.EventWriterXML
2020-10-02T10:59:03,865  INFO EventsManagerImpl:162   org.matsim.core.events.algorithms.EventWriter
2020-10-02T10:59:03,865  INFO EventsManagerImpl:162   org.matsim.core.events.handler.BasicEventHandler
2020-10-02T10:59:03,865  INFO EventsManagerImpl:221     > org.matsim.api.core.v01.events.Event
2020-10-02T10:59:03,866  INFO EventsManagerImpl:170 
2020-10-02T10:59:03,866  INFO ControlerListenerManagerImpl:224 calling notifyBeforeMobsim on org.matsim.core.controler.corelisteners.PlansDumpingImpl
2020-10-02T10:59:03,867  INFO PlansDumpingImpl:76 dumping plans...
2020-10-02T10:59:03,876  WARN ObjectAttributesConverter:77 No AttributeConverter found for class java.util.Collections$UnmodifiableMap. Not all attribute values can be converted.
2020-10-02T10:59:03,983  INFO Counter:69 [PopulationWriter] dumped person # 1
2020-10-02T10:59:03,984  INFO PopulationWriter:144 Population written to: C:/Users/ChengxiL/git/scenariosGunnar/input-data/stockholm/bicycles/testScenario/outputBicyclePT/ITERS/it.0/0.plans.xml.gz
2020-10-02T10:59:03,993  INFO Counter:74 [PopulationWriter] dumped person # 1
2020-10-02T10:59:03,993  INFO PlansDumpingImpl:93 finished plans dump.
2020-10-02T10:59:03,994  INFO ControlerListenerManagerImpl:229 calling notifyBeforeMobsim on org.matsim.core.population.VspPlansCleaner
2020-10-02T10:59:03,994  INFO ControlerListenerManagerImpl:232 [it.0] all ControlerBeforeMobsimListeners called.
2020-10-02T10:59:03,996  INFO PrepareForMobsimImpl:83 Network seems to be multimodal. Create car-only network which is handed over to PersonPrepareForSim.
2020-10-02T10:59:03,996  INFO NetworkImpl:163  node # 1
2020-10-02T10:59:03,996  INFO NetworkImpl:163  node # 4
2020-10-02T10:59:03,996  INFO NetworkImpl:163  node # 16
2020-10-02T10:59:03,996  INFO NetworkImpl:163  node # 64
2020-10-02T10:59:03,997  INFO NetworkImpl:159  link # 1
2020-10-02T10:59:03,997  INFO NetworkImpl:159  link # 4
2020-10-02T10:59:03,997  INFO NetworkImpl:159  link # 16
2020-10-02T10:59:03,998  INFO NetworkImpl:159  link # 64
2020-10-02T10:59:04,001  INFO NetworkImpl:159  link # 256
2020-10-02T10:59:04,007  INFO RandomizingTimeDistanceTravelDisutilityFactory:85  sigma: 3.0; resulting normalization: 0.011108996538242306
2020-10-02T10:59:04,009  INFO RandomizingTimeDistanceTravelDisutilityFactory:85  sigma: 3.0; resulting normalization: 0.011108996538242306
2020-10-02T10:59:04,017  INFO Counter:69 [PersonPrepareForSim] handled person # 1
2020-10-02T10:59:04,018  INFO Counter:74 [PersonPrepareForSim] handled person # 1
2020-10-02T10:59:04,207  INFO MobsimListenerManager:49 calling addQueueSimulationListener
2020-10-02T10:59:04,209  INFO MobsimListenerManager:53   assigned class org.matsim.core.mobsim.framework.listeners.MobsimListener to interface org.matsim.core.mobsim.framework.listeners.MobsimAfterSimStepListener
2020-10-02T10:59:04,210  INFO MobsimListenerManager:53   assigned class org.matsim.core.mobsim.framework.listeners.MobsimListener to interface org.matsim.core.mobsim.framework.listeners.MobsimInitializedListener
2020-10-02T10:59:04,210  INFO MobsimListenerManager:53   assigned class org.matsim.core.mobsim.framework.listeners.MobsimListener to interface org.matsim.vis.snapshotwriters.SnapshotWriterManager
2020-10-02T10:59:04,210  INFO MobsimListenerManager:53   assigned class org.matsim.core.mobsim.framework.listeners.MobsimListener to interface org.matsim.core.mobsim.framework.listeners.MobsimBeforeCleanupListener
2020-10-02T10:59:04,210  INFO MobsimListenerManager:53   assigned class org.matsim.core.mobsim.framework.listeners.MobsimListener to interface org.matsim.core.mobsim.framework.listeners.MobsimListener
2020-10-02T10:59:04,216  WARN FreespeedTravelTimeAndDisutility:69 The travel cost in org.matsim.core.router.costcalculators.FreespeedTravelTimeAndDisutility under normal circumstances should be > 0. Currently, it is 0.0.That is the sum of the costs for traveling and the opportunity costs. Please adjust the parameters'traveling' and 'performing' in the module 'planCalcScore' in your config file to be lower or equal than 0 when added.
2020-10-02T10:59:04,217  WARN FreespeedTravelTimeAndDisutility:75  This message given only once.
2020-10-02T10:59:04,298  WARN QueueWithBuffer:390 Link tr_0 too small: enlarge storage capacity from: 27.77777777777778 Vehicles to: 362.70789779346865 Vehicles.  This is not fatal, but modifies the traffic flow dynamics.
2020-10-02T10:59:04,299  WARN QueueWithBuffer:390 Link tr_1 too small: enlarge storage capacity from: 28.596476340920127 Vehicles to: 1191.5198475383388 Vehicles.  This is not fatal, but modifies the traffic flow dynamics.
2020-10-02T10:59:04,299  WARN QueueWithBuffer:390 Link tr_2 too small: enlarge storage capacity from: 53.0998495759676 Vehicles to: 2212.4937323319837 Vehicles.  This is not fatal, but modifies the traffic flow dynamics.
2020-10-02T10:59:04,341  INFO QSimProvider:102 Added MobsimEngine class org.matsim.core.mobsim.qsim.ActivityEngineDefaultImpl
2020-10-02T10:59:04,342  INFO QSimProvider:108 Added Activityhandler class org.matsim.core.mobsim.qsim.ActivityEngineDefaultImpl
2020-10-02T10:59:04,342  INFO QSimProvider:114 Added DepartureHandler class org.matsim.core.mobsim.qsim.qnetsimengine.VehicularDepartureHandler
2020-10-02T10:59:04,343  INFO QSimProvider:102 Added MobsimEngine class org.matsim.core.mobsim.qsim.qnetsimengine.QNetsimEngineWithThreadpool
2020-10-02T10:59:04,343  INFO QSimProvider:102 Added MobsimEngine class org.matsim.core.mobsim.qsim.DefaultTeleportationEngine
2020-10-02T10:59:04,343  INFO QSimProvider:114 Added DepartureHandler class org.matsim.core.mobsim.qsim.DefaultTeleportationEngine
2020-10-02T10:59:04,343  INFO QSimProvider:120 Added AgentSource class org.matsim.core.mobsim.qsim.agents.PopulationAgentSource
2020-10-02T10:59:04,343  INFO MobsimListenerManager:49 calling addQueueSimulationListener
2020-10-02T10:59:04,344  INFO MobsimListenerManager:53   assigned class org.matsim.core.mobsim.framework.listeners.MobsimListener to interface org.matsim.core.mobsim.framework.listeners.MobsimBeforeSimStepListener
2020-10-02T10:59:04,344  INFO MobsimListenerManager:53   assigned class org.matsim.core.mobsim.framework.listeners.MobsimListener to interface org.matsim.core.mobsim.qsim.messagequeueengine.MessageQueueEngine
2020-10-02T10:59:04,344  INFO MobsimListenerManager:53   assigned class org.matsim.core.mobsim.framework.listeners.MobsimListener to interface org.matsim.core.mobsim.framework.listeners.MobsimListener
2020-10-02T10:59:04,344  INFO QSimProvider:126 Added MobsimListener class org.matsim.core.mobsim.qsim.messagequeueengine.MessageQueueEngine
2020-10-02T10:59:04,354  INFO QSimProvider:102 Added MobsimEngine class ch.sbb.matsim.mobsim.qsim.pt.SBBTransitQSimEngine
2020-10-02T10:59:04,355  INFO QSimProvider:114 Added DepartureHandler class ch.sbb.matsim.mobsim.qsim.pt.SBBTransitQSimEngine
2020-10-02T10:59:04,355  INFO QSimProvider:120 Added AgentSource class ch.sbb.matsim.mobsim.qsim.pt.SBBTransitQSimEngine
2020-10-02T10:59:04,374  INFO PopulationUtils:1194 adding scenario element for allpersons container
2020-10-02T10:59:04,374  INFO PopulationImpl:105  person # 1
2020-10-02T10:59:04,465  INFO AbstractQNetsimEngine:427 Assigned 250 nodes and 769 links to QSimEngineRunner #0
2020-10-02T10:59:04,481  INFO EventsManagerImpl:135  event # 1
2020-10-02T10:59:04,493  INFO EventsManagerImpl:135  event # 4
2020-10-02T10:59:04,512  INFO AbstractQNetsimEngine:365 SIMULATION (QNetsimEngine) AT 07:00:00 : #links=0 #nodes=0
2020-10-02T10:59:04,567  INFO QSim:549 SIMULATION (NEW QSim) AT 07:00:00 : #Veh=101 lost=0 simT=0.0s realT=0s; (s/r): 0.0
2020-10-02T10:59:04,570  INFO EventsManagerImpl:135  event # 16
2020-10-02T10:59:04,737  INFO EventsManagerImpl:135  event # 64
2020-10-02T10:59:04,976  INFO AbstractQNetsimEngine:365 SIMULATION (QNetsimEngine) AT 08:00:00 : #links=0 #nodes=0
2020-10-02T10:59:04,977  INFO QSim:549 SIMULATION (NEW QSim) AT 08:00:00 : #Veh=89 lost=0 simT=3600.0s realT=0s; (s/r): Infinity
2020-10-02T10:59:05,032  INFO EventsManagerImpl:135  event # 256
2020-10-02T10:59:05,302  INFO AbstractQNetsimEngine:365 SIMULATION (QNetsimEngine) AT 09:00:00 : #links=0 #nodes=0
2020-10-02T10:59:05,302  INFO QSim:549 SIMULATION (NEW QSim) AT 09:00:00 : #Veh=77 lost=0 simT=7200.0s realT=1s; (s/r): 7200.0
2020-10-02T10:59:05,603  INFO AbstractQNetsimEngine:365 SIMULATION (QNetsimEngine) AT 10:00:00 : #links=0 #nodes=0
2020-10-02T10:59:05,603  INFO QSim:549 SIMULATION (NEW QSim) AT 10:00:00 : #Veh=65 lost=0 simT=10800.0s realT=1s; (s/r): 10800.0
2020-10-02T10:59:05,842  INFO AbstractQNetsimEngine:365 SIMULATION (QNetsimEngine) AT 11:00:00 : #links=0 #nodes=0
2020-10-02T10:59:05,842  INFO QSim:549 SIMULATION (NEW QSim) AT 11:00:00 : #Veh=53 lost=0 simT=14400.0s realT=1s; (s/r): 14400.0
2020-10-02T10:59:06,069  INFO EventsManagerImpl:135  event # 1024
2020-10-02T10:59:06,117  INFO AbstractQNetsimEngine:365 SIMULATION (QNetsimEngine) AT 12:00:00 : #links=0 #nodes=0
2020-10-02T10:59:06,117  INFO QSim:549 SIMULATION (NEW QSim) AT 12:00:00 : #Veh=41 lost=0 simT=18000.0s realT=1s; (s/r): 18000.0
2020-10-02T10:59:06,379  INFO AbstractQNetsimEngine:365 SIMULATION (QNetsimEngine) AT 13:00:00 : #links=0 #nodes=0
2020-10-02T10:59:06,380  INFO QSim:549 SIMULATION (NEW QSim) AT 13:00:00 : #Veh=29 lost=0 simT=21600.0s realT=2s; (s/r): 10800.0
2020-10-02T10:59:06,607  INFO AbstractQNetsimEngine:365 SIMULATION (QNetsimEngine) AT 14:00:00 : #links=0 #nodes=0
2020-10-02T10:59:06,607  INFO QSim:549 SIMULATION (NEW QSim) AT 14:00:00 : #Veh=17 lost=0 simT=25200.0s realT=2s; (s/r): 12600.0
2020-10-02T10:59:06,867  INFO AbstractQNetsimEngine:365 SIMULATION (QNetsimEngine) AT 15:00:00 : #links=0 #nodes=0
2020-10-02T10:59:06,867  INFO QSim:549 SIMULATION (NEW QSim) AT 15:00:00 : #Veh=4 lost=0 simT=28800.0s realT=2s; (s/r): 14400.0
2020-10-02T10:59:06,935  INFO Gbl:191 Thread performance: Thread=class org.matsim.core.events.SimStepParallelEventsManagerImpl$ProcessEventsRunnable0  cpu-time=0.375sec
2020-10-02T10:59:06,943  INFO AbstractController$9:221 ### ITERATION 0 fires after mobsim event
2020-10-02T10:59:06,950  INFO ControlerListenerManagerImpl:248 calling notifyAfterMobsim on org.matsim.analysis.LegTimesControlerListener
2020-10-02T10:59:06,959  INFO LegTimesControlerListener:50 [0] average trip (probably: leg) duration is: 1557 seconds = 00:25:57
2020-10-02T10:59:06,960  INFO ControlerListenerManagerImpl:248 calling notifyAfterMobsim on org.matsim.core.scoring.EventsToActivities$1
2020-10-02T10:59:06,961  INFO ControlerListenerManagerImpl:251 [it.0] all ControlerAfterMobsimListeners called.
2020-10-02T10:59:06,962  INFO AbstractController$4:150 ### ITERATION 0 fires scoring event
2020-10-02T10:59:06,962  INFO ControlerListenerManagerImpl:183 calling notifyScoring on org.matsim.core.scoring.PlansScoringImpl
2020-10-02T10:59:06,969  INFO NewScoreAssignerImpl:57 it: 0 msaStart: null
2020-10-02T10:59:06,970  INFO ControlerListenerManagerImpl:194 [it.0] all ControlerScoringListeners called.
2020-10-02T10:59:06,971  INFO AbstractController$5:158 ### ITERATION 0 fires iteration end event
2020-10-02T10:59:06,971  INFO ControlerListenerManagerImpl:160 calling notifyIterationEnds on org.matsim.core.controler.corelisteners.EventsHandlingImpl
2020-10-02T10:59:06,974  INFO EventsManagerImpl:175 removing Event-Handler: org.matsim.core.events.algorithms.EventWriterXML
2020-10-02T10:59:06,974  INFO EventsManagerImpl:175 removing Event-Handler: org.matsim.core.events.algorithms.EventWriterXML
2020-10-02T10:59:06,974  INFO ControlerListenerManagerImpl:160 calling notifyIterationEnds on org.matsim.core.scoring.PlansScoringImpl
2020-10-02T10:59:06,975  INFO ControlerListenerManagerImpl:167 calling notifyIterationEnds on org.matsim.counts.CountsControlerListener
2020-10-02T10:59:06,975  INFO ControlerListenerManagerImpl:167 calling notifyIterationEnds on org.matsim.analysis.ModeStatsControlerListener
2020-10-02T10:59:06,975  INFO ModeStatsControlerListener:142 Mode shares over all 2.0 trips found. MainModeIdentifier: class org.matsim.core.router.RoutingModeMainModeIdentifier
2020-10-02T10:59:06,976  INFO ModeStatsControlerListener:149 -- mode share of mode bike = 0.0
2020-10-02T10:59:06,977  INFO ModeStatsControlerListener:149 -- mode share of mode busPassenger = 1.0
2020-10-02T10:59:06,977  INFO ModeStatsControlerListener:149 -- mode share of mode car = 0.0
2020-10-02T10:59:06,977  INFO ModeStatsControlerListener:149 -- mode share of mode pt = 0.0
2020-10-02T10:59:06,977  INFO ModeStatsControlerListener:149 -- mode share of mode walk = 0.0
2020-10-02T10:59:06,977  INFO ControlerListenerManagerImpl:167 calling notifyIterationEnds on org.matsim.analysis.ScoreStatsControlerListener
2020-10-02T10:59:06,978  INFO ScoreStatsControlerListener:181 -- avg. score of the executed plan of each agent: -4.661934985682485
2020-10-02T10:59:06,978  INFO ScoreStatsControlerListener:182 -- avg. score of the worst plan of each agent: -4.661934985682485
2020-10-02T10:59:06,978  INFO ScoreStatsControlerListener:183 -- avg. of the avg. plan score per agent: -4.661934985682485
2020-10-02T10:59:06,978  INFO ScoreStatsControlerListener:184 -- avg. score of the best plan of each agent: -4.661934985682485
2020-10-02T10:59:06,986  INFO ControlerListenerManagerImpl:167 calling notifyIterationEnds on org.matsim.analysis.IterationTravelStatsControlerListener
2020-10-02T10:59:07,003  INFO TravelDistanceStats:143 -- average leg distance per plan (executed plans only): 380.78698464123926 meters
2020-10-02T10:59:07,004  INFO TravelDistanceStats:144 average leg distance per Person (executed plans only): 2284.7219078474354 meters (statistic on all 6 legs which have a finite distance)
2020-10-02T10:59:07,004  INFO TravelDistanceStats:145 -- average trip distance per plan (executed plans only): 1142.360953923718 meters
2020-10-02T10:59:07,004  INFO TravelDistanceStats:146 average trip distance per Person (executed plans only): 2284.721907847436 meters (statistic on all 2 trips which have a finite distance)
2020-10-02T10:59:07,004  INFO TravelDistanceStats:147 (TravelDistanceStats takes an average over all legs where the simulation reports travelled (network) distances
2020-10-02T10:59:07,005  INFO TravelDistanceStats:148 (and teleported legs whose route contains a distance.)
2020-10-02T10:59:07,037  INFO ControlerListenerManagerImpl:167 calling notifyIterationEnds on org.matsim.analysis.LegHistogramListener
2020-10-02T10:59:07,075  INFO LegHistogramListener:72 number of legs:	6	100%
2020-10-02T10:59:07,079  INFO LegHistogramListener:79 number of bike legs:	2	33.333333333333336%
2020-10-02T10:59:07,079  INFO LegHistogramListener:79 number of busPassenger legs:	1	16.666666666666668%
2020-10-02T10:59:07,079  INFO LegHistogramListener:79 number of walk legs:	3	50.0%
2020-10-02T10:59:08,250  INFO ControlerListenerManagerImpl:167 calling notifyIterationEnds on org.matsim.analysis.LinkStatsControlerListener
2020-10-02T10:59:08,251  INFO ControlerListenerManagerImpl:171 [it.0] all ControlerIterationEndsListeners called.
2020-10-02T10:59:08,605  INFO AbstractController:168 ### ITERATION 0 ENDS
2020-10-02T10:59:08,605  INFO AbstractController:169 ###################################################
2020-10-02T10:59:08,605  INFO AbstractController:124 ###################################################
2020-10-02T10:59:08,606  INFO AbstractController:125 ### ITERATION 1 BEGINS
2020-10-02T10:59:08,606  INFO ControlerListenerManagerImpl:145 calling notifyIterationStarts on org.matsim.analysis.LegHistogramListener
2020-10-02T10:59:08,607  INFO ControlerListenerManagerImpl:145 calling notifyIterationStarts on org.matsim.analysis.LinkStatsControlerListener
2020-10-02T10:59:08,607  INFO ControlerListenerManagerImpl:145 calling notifyIterationStarts on org.matsim.core.replanning.ReplanningContextImpl
2020-10-02T10:59:08,607  INFO ControlerListenerManagerImpl:145 calling notifyIterationStarts on org.matsim.core.scoring.ScoringFunctionsForPopulation$1
2020-10-02T10:59:08,607  INFO ControlerListenerManagerImpl:145 calling notifyIterationStarts on org.matsim.core.scoring.ExperiencedPlansServiceImpl$1
2020-10-02T10:59:08,607  INFO ControlerListenerManagerImpl:148 [it.1] all ControlerIterationStartsListeners called.
2020-10-02T10:59:08,609  INFO ControlerListenerManagerImpl:205 calling notifyReplanning on org.matsim.core.controler.corelisteners.PlansReplanningImpl
2020-10-02T10:59:08,610  INFO RandomizingTimeDistanceTravelDisutilityFactory:85  sigma: 3.0; resulting normalization: 0.011108996538242306
2020-10-02T10:59:08,612  INFO RandomizingTimeDistanceTravelDisutilityFactory:85  sigma: 3.0; resulting normalization: 0.011108996538242306
2020-10-02T10:59:08,615  INFO ChooseRandomLegModeForSubtour:98 Chain based modes: []
2020-10-02T10:59:08,616  INFO ChooseRandomLegModeForSubtour:98 Chain based modes: []
2020-10-02T10:59:08,620  INFO AbstractMultithreadedModule:141 [PlanRouter] starting 2 threads, handling 1 plans
2020-10-02T10:59:08,636  INFO Counter:69 [PlanRouter] handled plan # 1
2020-10-02T10:59:08,663  INFO AbstractMultithreadedModule:156 [PlanRouter] all 2 threads finished.
2020-10-02T10:59:08,686  INFO GenericPlanStrategyImpl:125 Plan-Strategy finished, 1 plans handled. Strategy: RandomPlanSelector_ReRoute
2020-10-02T10:59:08,686  INFO AbstractMultithreadedModule:141 [ChooseRandomLegModeForSubtour] starting 2 threads, handling 0 plans
2020-10-02T10:59:08,708  INFO AbstractMultithreadedModule:156 [ChooseRandomLegModeForSubtour] all 2 threads finished.
2020-10-02T10:59:08,708  INFO RandomizingTimeDistanceTravelDisutilityFactory:85  sigma: 3.0; resulting normalization: 0.011108996538242306
2020-10-02T10:59:08,709  INFO RandomizingTimeDistanceTravelDisutilityFactory:85  sigma: 3.0; resulting normalization: 0.011108996538242306
2020-10-02T10:59:08,712  INFO AbstractMultithreadedModule:141 [PlanRouter] starting 2 threads, handling 0 plans
2020-10-02T10:59:08,735  INFO AbstractMultithreadedModule:156 [PlanRouter] all 2 threads finished.
2020-10-02T10:59:08,735  INFO GenericPlanStrategyImpl:125 Plan-Strategy finished, 0 plans handled. Strategy: RandomPlanSelector_SubtourModeChoice_ReRoute
2020-10-02T10:59:08,735  INFO ControlerListenerManagerImpl:213 [it.1] all ControlerReplanningListeners called.
2020-10-02T10:59:08,736  INFO ControlerListenerManagerImpl:224 calling notifyBeforeMobsim on org.matsim.core.controler.corelisteners.EventsHandlingImpl
2020-10-02T10:59:08,736  INFO EventsManagerImpl:184 resetting Event-Handlers
2020-10-02T10:59:08,736  INFO EventsManagerImpl:191   org.matsim.core.trafficmonitoring.TravelTimeCalculator
2020-10-02T10:59:08,736  INFO EventsManagerImpl:191   org.matsim.core.trafficmonitoring.TravelTimeCalculator
2020-10-02T10:59:08,736  INFO EventsManagerImpl:191   org.matsim.core.scoring.EventsToLegsAndActivities
2020-10-02T10:59:08,736  INFO EventsManagerImpl:191   org.matsim.analysis.VolumesAnalyzer
2020-10-02T10:59:08,737  INFO EventsManagerImpl:191   org.matsim.core.scoring.ScoringFunctionsForPopulation
2020-10-02T10:59:08,737  INFO EventsManagerImpl:191   org.matsim.analysis.LegHistogram
2020-10-02T10:59:08,737  INFO EventsManagerImpl:191   org.matsim.analysis.CalcLegTimes
2020-10-02T10:59:08,737  INFO EventsManagerImpl:191   ch.sbb.matsim.routing.pt.raptor.SwissRailRaptorFactory$$Lambda$176/0x0000000100496440
2020-10-02T10:59:08,737  INFO ControlerListenerManagerImpl:224 calling notifyBeforeMobsim on org.matsim.core.controler.corelisteners.PlansDumpingImpl
2020-10-02T10:59:08,737  INFO PlansDumpingImpl:76 dumping plans...
2020-10-02T10:59:08,739  WARN ObjectAttributesConverter:77 No AttributeConverter found for class java.util.Collections$UnmodifiableMap. Not all attribute values can be converted.
2020-10-02T10:59:08,742  INFO Counter:69 [PopulationWriter] dumped person # 1
2020-10-02T10:59:08,743  INFO PopulationWriter:144 Population written to: C:/Users/ChengxiL/git/scenariosGunnar/input-data/stockholm/bicycles/testScenario/outputBicyclePT/ITERS/it.1/1.plans.xml.gz
2020-10-02T10:59:08,744  INFO Counter:74 [PopulationWriter] dumped person # 1
2020-10-02T10:59:08,744  INFO PlansDumpingImpl:93 finished plans dump.
2020-10-02T10:59:08,744  INFO ControlerListenerManagerImpl:229 calling notifyBeforeMobsim on org.matsim.core.population.VspPlansCleaner
2020-10-02T10:59:08,744  INFO ControlerListenerManagerImpl:232 [it.1] all ControlerBeforeMobsimListeners called.
2020-10-02T10:59:08,744  INFO PrepareForMobsimImpl:83 Network seems to be multimodal. Create car-only network which is handed over to PersonPrepareForSim.
2020-10-02T10:59:08,745  INFO NetworkImpl:163  node # 1
2020-10-02T10:59:08,745  INFO NetworkImpl:163  node # 4
2020-10-02T10:59:08,745  INFO NetworkImpl:163  node # 16
2020-10-02T10:59:08,745  INFO NetworkImpl:163  node # 64
2020-10-02T10:59:08,746  INFO NetworkImpl:159  link # 1
2020-10-02T10:59:08,746  INFO NetworkImpl:159  link # 4
2020-10-02T10:59:08,746  INFO NetworkImpl:159  link # 16
2020-10-02T10:59:08,747  INFO NetworkImpl:159  link # 64
2020-10-02T10:59:08,748  INFO NetworkImpl:159  link # 256
2020-10-02T10:59:08,753  INFO RandomizingTimeDistanceTravelDisutilityFactory:85  sigma: 3.0; resulting normalization: 0.011108996538242306
2020-10-02T10:59:08,755  INFO RandomizingTimeDistanceTravelDisutilityFactory:85  sigma: 3.0; resulting normalization: 0.011108996538242306
2020-10-02T10:59:08,791  INFO Counter:69 [PersonPrepareForSim] handled person # 1
2020-10-02T10:59:08,801  INFO Counter:74 [PersonPrepareForSim] handled person # 1
2020-10-02T10:59:08,834  INFO MobsimListenerManager:49 calling addQueueSimulationListener
2020-10-02T10:59:08,835  INFO MobsimListenerManager:53   assigned class org.matsim.core.mobsim.framework.listeners.MobsimListener to interface org.matsim.core.mobsim.framework.listeners.MobsimAfterSimStepListener
2020-10-02T10:59:08,835  INFO MobsimListenerManager:53   assigned class org.matsim.core.mobsim.framework.listeners.MobsimListener to interface org.matsim.core.mobsim.framework.listeners.MobsimInitializedListener
2020-10-02T10:59:08,836  INFO MobsimListenerManager:53   assigned class org.matsim.core.mobsim.framework.listeners.MobsimListener to interface org.matsim.vis.snapshotwriters.SnapshotWriterManager
2020-10-02T10:59:08,836  INFO MobsimListenerManager:53   assigned class org.matsim.core.mobsim.framework.listeners.MobsimListener to interface org.matsim.core.mobsim.framework.listeners.MobsimBeforeCleanupListener
2020-10-02T10:59:08,836  INFO MobsimListenerManager:53   assigned class org.matsim.core.mobsim.framework.listeners.MobsimListener to interface org.matsim.core.mobsim.framework.listeners.MobsimListener
2020-10-02T10:59:08,839  WARN QueueWithBuffer:390 Link tr_0 too small: enlarge storage capacity from: 27.77777777777778 Vehicles to: 362.70789779346865 Vehicles.  This is not fatal, but modifies the traffic flow dynamics.
2020-10-02T10:59:08,839  WARN QueueWithBuffer:390 Link tr_1 too small: enlarge storage capacity from: 28.596476340920127 Vehicles to: 1191.5198475383388 Vehicles.  This is not fatal, but modifies the traffic flow dynamics.
2020-10-02T10:59:08,840  WARN QueueWithBuffer:390 Link tr_2 too small: enlarge storage capacity from: 53.0998495759676 Vehicles to: 2212.4937323319837 Vehicles.  This is not fatal, but modifies the traffic flow dynamics.
2020-10-02T10:59:08,842  INFO QSimProvider:102 Added MobsimEngine class org.matsim.core.mobsim.qsim.ActivityEngineDefaultImpl
2020-10-02T10:59:08,842  INFO QSimProvider:108 Added Activityhandler class org.matsim.core.mobsim.qsim.ActivityEngineDefaultImpl
2020-10-02T10:59:08,842  INFO QSimProvider:114 Added DepartureHandler class org.matsim.core.mobsim.qsim.qnetsimengine.VehicularDepartureHandler
2020-10-02T10:59:08,842  INFO QSimProvider:102 Added MobsimEngine class org.matsim.core.mobsim.qsim.qnetsimengine.QNetsimEngineWithThreadpool
2020-10-02T10:59:08,861  INFO QSimProvider:102 Added MobsimEngine class org.matsim.core.mobsim.qsim.DefaultTeleportationEngine
2020-10-02T10:59:08,861  INFO QSimProvider:114 Added DepartureHandler class org.matsim.core.mobsim.qsim.DefaultTeleportationEngine
2020-10-02T10:59:08,861  INFO QSimProvider:120 Added AgentSource class org.matsim.core.mobsim.qsim.agents.PopulationAgentSource
2020-10-02T10:59:08,861  INFO MobsimListenerManager:49 calling addQueueSimulationListener
2020-10-02T10:59:08,861  INFO MobsimListenerManager:53   assigned class org.matsim.core.mobsim.framework.listeners.MobsimListener to interface org.matsim.core.mobsim.framework.listeners.MobsimBeforeSimStepListener
2020-10-02T10:59:08,861  INFO MobsimListenerManager:53   assigned class org.matsim.core.mobsim.framework.listeners.MobsimListener to interface org.matsim.core.mobsim.qsim.messagequeueengine.MessageQueueEngine
2020-10-02T10:59:08,862  INFO MobsimListenerManager:53   assigned class org.matsim.core.mobsim.framework.listeners.MobsimListener to interface org.matsim.core.mobsim.framework.listeners.MobsimListener
2020-10-02T10:59:08,862  INFO QSimProvider:126 Added MobsimListener class org.matsim.core.mobsim.qsim.messagequeueengine.MessageQueueEngine
2020-10-02T10:59:08,862  INFO QSimProvider:102 Added MobsimEngine class ch.sbb.matsim.mobsim.qsim.pt.SBBTransitQSimEngine
2020-10-02T10:59:08,862  INFO QSimProvider:114 Added DepartureHandler class ch.sbb.matsim.mobsim.qsim.pt.SBBTransitQSimEngine
2020-10-02T10:59:08,862  INFO QSimProvider:120 Added AgentSource class ch.sbb.matsim.mobsim.qsim.pt.SBBTransitQSimEngine
2020-10-02T10:59:08,868  INFO AbstractQNetsimEngine:427 Assigned 250 nodes and 769 links to QSimEngineRunner #0
2020-10-02T10:59:08,877  INFO AbstractQNetsimEngine:365 SIMULATION (QNetsimEngine) AT 07:00:00 : #links=0 #nodes=0
2020-10-02T10:59:08,877  INFO QSim:549 SIMULATION (NEW QSim) AT 07:00:00 : #Veh=101 lost=0 simT=0.0s realT=0s; (s/r): 0.0
2020-10-02T10:59:09,182  INFO AbstractQNetsimEngine:365 SIMULATION (QNetsimEngine) AT 08:00:00 : #links=0 #nodes=0
2020-10-02T10:59:09,183  INFO QSim:549 SIMULATION (NEW QSim) AT 08:00:00 : #Veh=89 lost=0 simT=3600.0s realT=0s; (s/r): Infinity
2020-10-02T10:59:09,533  INFO AbstractQNetsimEngine:365 SIMULATION (QNetsimEngine) AT 09:00:00 : #links=0 #nodes=0
2020-10-02T10:59:09,534  INFO QSim:549 SIMULATION (NEW QSim) AT 09:00:00 : #Veh=77 lost=0 simT=7200.0s realT=0s; (s/r): Infinity
2020-10-02T10:59:09,826  INFO AbstractQNetsimEngine:365 SIMULATION (QNetsimEngine) AT 10:00:00 : #links=0 #nodes=0
2020-10-02T10:59:09,835  INFO QSim:549 SIMULATION (NEW QSim) AT 10:00:00 : #Veh=65 lost=0 simT=10800.0s realT=0s; (s/r): Infinity
2020-10-02T10:59:10,098  INFO AbstractQNetsimEngine:365 SIMULATION (QNetsimEngine) AT 11:00:00 : #links=0 #nodes=0
2020-10-02T10:59:10,098  INFO QSim:549 SIMULATION (NEW QSim) AT 11:00:00 : #Veh=53 lost=0 simT=14400.0s realT=1s; (s/r): 14400.0
2020-10-02T10:59:10,337  INFO AbstractQNetsimEngine:365 SIMULATION (QNetsimEngine) AT 12:00:00 : #links=0 #nodes=0
2020-10-02T10:59:10,337  INFO QSim:549 SIMULATION (NEW QSim) AT 12:00:00 : #Veh=41 lost=0 simT=18000.0s realT=1s; (s/r): 18000.0
2020-10-02T10:59:10,579  INFO AbstractQNetsimEngine:365 SIMULATION (QNetsimEngine) AT 13:00:00 : #links=0 #nodes=0
2020-10-02T10:59:10,580  INFO QSim:549 SIMULATION (NEW QSim) AT 13:00:00 : #Veh=29 lost=0 simT=21600.0s realT=1s; (s/r): 21600.0
2020-10-02T10:59:10,835  INFO AbstractQNetsimEngine:365 SIMULATION (QNetsimEngine) AT 14:00:00 : #links=0 #nodes=0
2020-10-02T10:59:10,836  INFO QSim:549 SIMULATION (NEW QSim) AT 14:00:00 : #Veh=17 lost=0 simT=25200.0s realT=2s; (s/r): 12600.0
2020-10-02T10:59:11,092  INFO AbstractQNetsimEngine:365 SIMULATION (QNetsimEngine) AT 15:00:00 : #links=0 #nodes=0
2020-10-02T10:59:11,092  INFO QSim:549 SIMULATION (NEW QSim) AT 15:00:00 : #Veh=4 lost=0 simT=28800.0s realT=2s; (s/r): 14400.0
2020-10-02T10:59:11,158  INFO AbstractController$9:221 ### ITERATION 1 fires after mobsim event
2020-10-02T10:59:11,158  INFO ControlerListenerManagerImpl:248 calling notifyAfterMobsim on org.matsim.analysis.LegTimesControlerListener
2020-10-02T10:59:11,158  INFO Gbl:191 Thread performance: Thread=class org.matsim.core.events.SimStepParallelEventsManagerImpl$ProcessEventsRunnable0  cpu-time=0.40625sec
2020-10-02T10:59:11,160  INFO LegTimesControlerListener:50 [1] average trip (probably: leg) duration is: 1557 seconds = 00:25:57
2020-10-02T10:59:11,160  INFO ControlerListenerManagerImpl:248 calling notifyAfterMobsim on org.matsim.core.scoring.EventsToActivities$1
2020-10-02T10:59:11,160  INFO ControlerListenerManagerImpl:251 [it.1] all ControlerAfterMobsimListeners called.
2020-10-02T10:59:11,161  INFO AbstractController$4:150 ### ITERATION 1 fires scoring event
2020-10-02T10:59:11,161  INFO ControlerListenerManagerImpl:183 calling notifyScoring on org.matsim.core.scoring.PlansScoringImpl
2020-10-02T10:59:11,161  INFO NewScoreAssignerImpl:57 it: 1 msaStart: null
2020-10-02T10:59:11,161  INFO ControlerListenerManagerImpl:194 [it.1] all ControlerScoringListeners called.
2020-10-02T10:59:11,161  INFO AbstractController$5:158 ### ITERATION 1 fires iteration end event
2020-10-02T10:59:11,161  INFO ControlerListenerManagerImpl:160 calling notifyIterationEnds on org.matsim.core.controler.corelisteners.EventsHandlingImpl
2020-10-02T10:59:11,161  INFO ControlerListenerManagerImpl:160 calling notifyIterationEnds on org.matsim.core.scoring.PlansScoringImpl
2020-10-02T10:59:11,161  INFO ControlerListenerManagerImpl:167 calling notifyIterationEnds on org.matsim.counts.CountsControlerListener
2020-10-02T10:59:11,161  INFO ControlerListenerManagerImpl:167 calling notifyIterationEnds on org.matsim.analysis.ModeStatsControlerListener
2020-10-02T10:59:11,161  INFO ModeStatsControlerListener:142 Mode shares over all 2.0 trips found. MainModeIdentifier: class org.matsim.core.router.RoutingModeMainModeIdentifier
2020-10-02T10:59:11,161  INFO ModeStatsControlerListener:149 -- mode share of mode bike = 0.0
2020-10-02T10:59:11,162  INFO ModeStatsControlerListener:149 -- mode share of mode busPassenger = 1.0
2020-10-02T10:59:11,162  INFO ModeStatsControlerListener:149 -- mode share of mode car = 0.0
2020-10-02T10:59:11,162  INFO ModeStatsControlerListener:149 -- mode share of mode pt = 0.0
2020-10-02T10:59:11,162  INFO ModeStatsControlerListener:149 -- mode share of mode walk = 0.0
[...]
2020-10-02T10:59:15,455  INFO EventsManagerImpl:162   org.matsim.core.events.handler.BasicEventHandler
2020-10-02T10:59:15,455  INFO EventsManagerImpl:221     > org.matsim.api.core.v01.events.Event
2020-10-02T10:59:15,455  INFO EventsManagerImpl:170 
2020-10-02T10:59:15,455  INFO EventsManagerImpl:158 adding Event-Handler: org.matsim.core.events.algorithms.EventWriterXML
2020-10-02T10:59:15,456  INFO EventsManagerImpl:162   org.matsim.core.events.algorithms.EventWriter
2020-10-02T10:59:15,456  INFO EventsManagerImpl:162   org.matsim.core.events.handler.BasicEventHandler
2020-10-02T10:59:15,456  INFO EventsManagerImpl:221     > org.matsim.api.core.v01.events.Event
2020-10-02T10:59:15,456  INFO EventsManagerImpl:170 
2020-10-02T10:59:15,456  INFO ControlerListenerManagerImpl:224 calling notifyBeforeMobsim on org.matsim.core.controler.corelisteners.PlansDumpingImpl
2020-10-02T10:59:15,456  INFO ControlerListenerManagerImpl:229 calling notifyBeforeMobsim on org.matsim.core.population.VspPlansCleaner
2020-10-02T10:59:15,456  INFO ControlerListenerManagerImpl:232 [it.3] all ControlerBeforeMobsimListeners called.
2020-10-02T10:59:15,456  INFO PrepareForMobsimImpl:83 Network seems to be multimodal. Create car-only network which is handed over to PersonPrepareForSim.
2020-10-02T10:59:15,456  INFO NetworkImpl:163  node # 1
2020-10-02T10:59:15,456  INFO NetworkImpl:163  node # 4
2020-10-02T10:59:15,456  INFO NetworkImpl:163  node # 16
2020-10-02T10:59:15,457  INFO NetworkImpl:163  node # 64
2020-10-02T10:59:15,457  INFO NetworkImpl:159  link # 1
2020-10-02T10:59:15,457  INFO NetworkImpl:159  link # 4
2020-10-02T10:59:15,457  INFO NetworkImpl:159  link # 16
2020-10-02T10:59:15,458  INFO NetworkImpl:159  link # 64
2020-10-02T10:59:15,459  INFO NetworkImpl:159  link # 256
2020-10-02T10:59:15,474  INFO Counter:69 [PersonPrepareForSim] handled person # 1
2020-10-02T10:59:15,474  INFO Counter:74 [PersonPrepareForSim] handled person # 1
2020-10-02T10:59:15,526  INFO MobsimListenerManager:49 calling addQueueSimulationListener
2020-10-02T10:59:15,527  INFO MobsimListenerManager:53   assigned class org.matsim.core.mobsim.framework.listeners.MobsimListener to interface org.matsim.core.mobsim.framework.listeners.MobsimAfterSimStepListener
2020-10-02T10:59:15,527  INFO MobsimListenerManager:53   assigned class org.matsim.core.mobsim.framework.listeners.MobsimListener to interface org.matsim.core.mobsim.framework.listeners.MobsimInitializedListener
2020-10-02T10:59:15,527  INFO MobsimListenerManager:53   assigned class org.matsim.core.mobsim.framework.listeners.MobsimListener to interface org.matsim.vis.snapshotwriters.SnapshotWriterManager
2020-10-02T10:59:15,527  INFO MobsimListenerManager:53   assigned class org.matsim.core.mobsim.framework.listeners.MobsimListener to interface org.matsim.core.mobsim.framework.listeners.MobsimBeforeCleanupListener
2020-10-02T10:59:15,528  INFO MobsimListenerManager:53   assigned class org.matsim.core.mobsim.framework.listeners.MobsimListener to interface org.matsim.core.mobsim.framework.listeners.MobsimListener
2020-10-02T10:59:15,531  WARN QueueWithBuffer:390 Link tr_0 too small: enlarge storage capacity from: 27.77777777777778 Vehicles to: 362.70789779346865 Vehicles.  This is not fatal, but modifies the traffic flow dynamics.
2020-10-02T10:59:15,531  WARN QueueWithBuffer:390 Link tr_1 too small: enlarge storage capacity from: 28.596476340920127 Vehicles to: 1191.5198475383388 Vehicles.  This is not fatal, but modifies the traffic flow dynamics.
2020-10-02T10:59:15,531  WARN QueueWithBuffer:393 Additional warnings of this type are suppressed.
2020-10-02T10:59:15,533  INFO QSimProvider:102 Added MobsimEngine class org.matsim.core.mobsim.qsim.ActivityEngineDefaultImpl
2020-10-02T10:59:15,534  INFO QSimProvider:108 Added Activityhandler class org.matsim.core.mobsim.qsim.ActivityEngineDefaultImpl
2020-10-02T10:59:15,534  INFO QSimProvider:114 Added DepartureHandler class org.matsim.core.mobsim.qsim.qnetsimengine.VehicularDepartureHandler
2020-10-02T10:59:15,534  INFO QSimProvider:102 Added MobsimEngine class org.matsim.core.mobsim.qsim.qnetsimengine.QNetsimEngineWithThreadpool
2020-10-02T10:59:15,535  INFO QSimProvider:102 Added MobsimEngine class org.matsim.core.mobsim.qsim.DefaultTeleportationEngine
2020-10-02T10:59:15,535  INFO QSimProvider:114 Added DepartureHandler class org.matsim.core.mobsim.qsim.DefaultTeleportationEngine
2020-10-02T10:59:15,535  INFO QSimProvider:120 Added AgentSource class org.matsim.core.mobsim.qsim.agents.PopulationAgentSource
2020-10-02T10:59:15,535  INFO MobsimListenerManager:49 calling addQueueSimulationListener
2020-10-02T10:59:15,535  INFO MobsimListenerManager:53   assigned class org.matsim.core.mobsim.framework.listeners.MobsimListener to interface org.matsim.core.mobsim.framework.listeners.MobsimBeforeSimStepListener
2020-10-02T10:59:15,535  INFO MobsimListenerManager:53   assigned class org.matsim.core.mobsim.framework.listeners.MobsimListener to interface org.matsim.core.mobsim.qsim.messagequeueengine.MessageQueueEngine
2020-10-02T10:59:15,536  INFO MobsimListenerManager:53   assigned class org.matsim.core.mobsim.framework.listeners.MobsimListener to interface org.matsim.core.mobsim.framework.listeners.MobsimListener
2020-10-02T10:59:15,536  INFO QSimProvider:126 Added MobsimListener class org.matsim.core.mobsim.qsim.messagequeueengine.MessageQueueEngine
2020-10-02T10:59:15,537  INFO QSimProvider:102 Added MobsimEngine class ch.sbb.matsim.mobsim.qsim.pt.SBBTransitQSimEngine
2020-10-02T10:59:15,537  INFO QSimProvider:114 Added DepartureHandler class ch.sbb.matsim.mobsim.qsim.pt.SBBTransitQSimEngine
2020-10-02T10:59:15,537  INFO QSimProvider:120 Added AgentSource class ch.sbb.matsim.mobsim.qsim.pt.SBBTransitQSimEngine
2020-10-02T10:59:15,545  INFO AbstractQNetsimEngine:427 Assigned 250 nodes and 769 links to QSimEngineRunner #0
2020-10-02T10:59:15,556  INFO AbstractQNetsimEngine:365 SIMULATION (QNetsimEngine) AT 07:00:00 : #links=0 #nodes=0
2020-10-02T10:59:15,557  INFO QSim:549 SIMULATION (NEW QSim) AT 07:00:00 : #Veh=101 lost=0 simT=0.0s realT=0s; (s/r): 0.0
2020-10-02T10:59:15,769  INFO AbstractQNetsimEngine:365 SIMULATION (QNetsimEngine) AT 08:00:00 : #links=0 #nodes=0
2020-10-02T10:59:15,769  INFO QSim:549 SIMULATION (NEW QSim) AT 08:00:00 : #Veh=89 lost=0 simT=3600.0s realT=0s; (s/r): Infinity
2020-10-02T10:59:16,021  INFO AbstractQNetsimEngine:365 SIMULATION (QNetsimEngine) AT 09:00:00 : #links=0 #nodes=0
2020-10-02T10:59:16,021  INFO QSim:549 SIMULATION (NEW QSim) AT 09:00:00 : #Veh=77 lost=0 simT=7200.0s realT=0s; (s/r): Infinity
2020-10-02T10:59:16,250  INFO AbstractQNetsimEngine:365 SIMULATION (QNetsimEngine) AT 10:00:00 : #links=0 #nodes=0
2020-10-02T10:59:16,250  INFO QSim:549 SIMULATION (NEW QSim) AT 10:00:00 : #Veh=65 lost=0 simT=10800.0s realT=0s; (s/r): Infinity
2020-10-02T10:59:16,482  INFO AbstractQNetsimEngine:365 SIMULATION (QNetsimEngine) AT 11:00:00 : #links=0 #nodes=0
2020-10-02T10:59:16,482  INFO QSim:549 SIMULATION (NEW QSim) AT 11:00:00 : #Veh=53 lost=0 simT=14400.0s realT=0s; (s/r): Infinity
2020-10-02T10:59:16,717  INFO AbstractQNetsimEngine:365 SIMULATION (QNetsimEngine) AT 12:00:00 : #links=0 #nodes=0
2020-10-02T10:59:16,717  INFO QSim:549 SIMULATION (NEW QSim) AT 12:00:00 : #Veh=41 lost=0 simT=18000.0s realT=1s; (s/r): 18000.0
2020-10-02T10:59:16,946  INFO AbstractQNetsimEngine:365 SIMULATION (QNetsimEngine) AT 13:00:00 : #links=0 #nodes=0
2020-10-02T10:59:16,946  INFO QSim:549 SIMULATION (NEW QSim) AT 13:00:00 : #Veh=29 lost=0 simT=21600.0s realT=1s; (s/r): 21600.0
2020-10-02T10:59:17,165  INFO AbstractQNetsimEngine:365 SIMULATION (QNetsimEngine) AT 14:00:00 : #links=0 #nodes=0
2020-10-02T10:59:17,165  INFO QSim:549 SIMULATION (NEW QSim) AT 14:00:00 : #Veh=17 lost=0 simT=25200.0s realT=1s; (s/r): 25200.0
2020-10-02T10:59:17,385  INFO AbstractQNetsimEngine:365 SIMULATION (QNetsimEngine) AT 15:00:00 : #links=0 #nodes=0
2020-10-02T10:59:17,386  INFO QSim:549 SIMULATION (NEW QSim) AT 15:00:00 : #Veh=4 lost=0 simT=28800.0s realT=1s; (s/r): 28800.0
2020-10-02T10:59:17,442  INFO Gbl:191 Thread performance: Thread=class org.matsim.core.events.SimStepParallelEventsManagerImpl$ProcessEventsRunnable0  cpu-time=0.34375sec
2020-10-02T10:59:17,443  INFO AbstractController$9:221 ### ITERATION 3 fires after mobsim event
2020-10-02T10:59:17,443  INFO ControlerListenerManagerImpl:248 calling notifyAfterMobsim on org.matsim.analysis.LegTimesControlerListener
2020-10-02T10:59:17,445  INFO LegTimesControlerListener:50 [3] average trip (probably: leg) duration is: 8941 seconds = 02:29:01
2020-10-02T10:59:17,445  INFO ControlerListenerManagerImpl:248 calling notifyAfterMobsim on org.matsim.core.scoring.EventsToActivities$1
2020-10-02T10:59:17,445  INFO ControlerListenerManagerImpl:251 [it.3] all ControlerAfterMobsimListeners called.
2020-10-02T10:59:17,445  INFO AbstractController$4:150 ### ITERATION 3 fires scoring event
2020-10-02T10:59:17,445  INFO ControlerListenerManagerImpl:183 calling notifyScoring on org.matsim.core.scoring.PlansScoringImpl
2020-10-02T10:59:17,445  INFO NewScoreAssignerImpl:57 it: 3 msaStart: null
2020-10-02T10:59:17,446  INFO ControlerListenerManagerImpl:194 [it.3] all ControlerScoringListeners called.
2020-10-02T10:59:17,446  INFO AbstractController$5:158 ### ITERATION 3 fires iteration end event
2020-10-02T10:59:17,446  INFO ControlerListenerManagerImpl:160 calling notifyIterationEnds on org.matsim.core.controler.corelisteners.EventsHandlingImpl
2020-10-02T10:59:17,448  INFO EventsManagerImpl:175 removing Event-Handler: org.matsim.core.events.algorithms.EventWriterXML
2020-10-02T10:59:17,448  INFO EventsManagerImpl:175 removing Event-Handler: org.matsim.core.events.algorithms.EventWriterXML
2020-10-02T10:59:17,448  INFO ControlerListenerManagerImpl:160 calling notifyIterationEnds on org.matsim.core.scoring.PlansScoringImpl
2020-10-02T10:59:17,448  INFO ControlerListenerManagerImpl:167 calling notifyIterationEnds on org.matsim.counts.CountsControlerListener
2020-10-02T10:59:17,448  INFO ControlerListenerManagerImpl:167 calling notifyIterationEnds on org.matsim.analysis.ModeStatsControlerListener
2020-10-02T10:59:17,448  INFO ModeStatsControlerListener:142 Mode shares over all 2.0 trips found. MainModeIdentifier: class org.matsim.core.router.RoutingModeMainModeIdentifier
2020-10-02T10:59:17,448  INFO ModeStatsControlerListener:149 -- mode share of mode bike = 0.0
2020-10-02T10:59:17,448  INFO ModeStatsControlerListener:149 -- mode share of mode busPassenger = 0.0
2020-10-02T10:59:17,448  INFO ModeStatsControlerListener:149 -- mode share of mode car = 0.0
2020-10-02T10:59:17,449  INFO ModeStatsControlerListener:149 -- mode share of mode pt = 0.0
2020-10-02T10:59:17,449  INFO ModeStatsControlerListener:149 -- mode share of mode walk = 1.0
2020-10-02T10:59:17,532  INFO ControlerListenerManagerImpl:167 calling notifyIterationEnds on org.matsim.analysis.ScoreStatsControlerListener
2020-10-02T10:59:17,532  INFO ScoreStatsControlerListener:181 -- avg. score of the executed plan of each agent: -5.860141602332237
2020-10-02T10:59:17,532  INFO ScoreStatsControlerListener:182 -- avg. score of the worst plan of each agent: -5.860141602332237
2020-10-02T10:59:17,532  INFO ScoreStatsControlerListener:183 -- avg. of the avg. plan score per agent: -5.261038294007362
2020-10-02T10:59:17,532  INFO ScoreStatsControlerListener:184 -- avg. score of the best plan of each agent: -4.661934985682485
2020-10-02T10:59:17,611  INFO ControlerListenerManagerImpl:167 calling notifyIterationEnds on org.matsim.analysis.IterationTravelStatsControlerListener
2020-10-02T10:59:17,612  INFO TravelDistanceStats:143 -- average leg distance per plan (executed plans only): 894.140289924845 meters
2020-10-02T10:59:17,612  INFO TravelDistanceStats:144 average leg distance per Person (executed plans only): 1788.28057984969 meters (statistic on all 2 legs which have a finite distance)
2020-10-02T10:59:17,612  INFO TravelDistanceStats:145 -- average trip distance per plan (executed plans only): 894.140289924845 meters
2020-10-02T10:59:17,612  INFO TravelDistanceStats:146 average trip distance per Person (executed plans only): 1788.28057984969 meters (statistic on all 2 trips which have a finite distance)
2020-10-02T10:59:17,612  INFO TravelDistanceStats:147 (TravelDistanceStats takes an average over all legs where the simulation reports travelled (network) distances
2020-10-02T10:59:17,612  INFO TravelDistanceStats:148 (and teleported legs whose route contains a distance.)
2020-10-02T10:59:17,765  INFO ControlerListenerManagerImpl:167 calling notifyIterationEnds on org.matsim.analysis.LegHistogramListener
2020-10-02T10:59:17,769  INFO LegHistogramListener:72 number of legs:	2	100%
2020-10-02T10:59:17,769  INFO LegHistogramListener:79 number of walk legs:	2	100.0%
2020-10-02T10:59:17,959  INFO ControlerListenerManagerImpl:167 calling notifyIterationEnds on org.matsim.analysis.LinkStatsControlerListener
2020-10-02T10:59:17,959  INFO ControlerListenerManagerImpl:171 [it.3] all ControlerIterationEndsListeners called.
2020-10-02T10:59:18,120  INFO AbstractController:168 ### ITERATION 3 ENDS
2020-10-02T10:59:18,120  INFO AbstractController:169 ###################################################
2020-10-02T10:59:18,120  INFO MatsimRuntimeModifications:79 S H U T D O W N   ---   start shutdown.
2020-10-02T10:59:18,121  INFO ControlerListenerManagerImpl:121 calling notifyShutdown on org.matsim.core.controler.corelisteners.EventsHandlingImpl
2020-10-02T10:59:18,121  INFO ControlerListenerManagerImpl:121 calling notifyShutdown on org.matsim.core.controler.corelisteners.DumpDataAtEndImpl
2020-10-02T10:59:18,125  WARN ObjectAttributesConverter:77 No AttributeConverter found for class java.util.Collections$UnmodifiableMap. Not all attribute values can be converted.
2020-10-02T10:59:18,127  INFO Counter:69 [PopulationWriter] dumped person # 1
2020-10-02T10:59:18,128  INFO PopulationWriter:144 Population written to: C:/Users/ChengxiL/git/scenariosGunnar/input-data/stockholm/bicycles/testScenario/outputBicyclePT/output_plans.xml.gz
2020-10-02T10:59:18,129  INFO Counter:74 [PopulationWriter] dumped person # 1
2020-10-02T10:59:18,131  INFO NetworkWriter:69 Writing network to file: C:/Users/ChengxiL/git/scenariosGunnar/input-data/stockholm/bicycles/testScenario/outputBicyclePT/output_network.xml.gz...
2020-10-02T10:59:18,245  INFO NetworkWriter:72 done.
2020-10-02T10:59:18,255  INFO Config:587 setting context to [file:/C:/Users/ChengxiL/git/scenariosGunnar/]
2020-10-02T10:59:18,260  INFO Config:587 setting context to [file:/C:/Users/ChengxiL/git/scenariosGunnar/]
2020-10-02T10:59:18,265  INFO Config:587 setting context to [file:/C:/Users/ChengxiL/git/scenariosGunnar/]
2020-10-02T10:59:18,268  INFO Config:587 setting context to [file:/C:/Users/ChengxiL/git/scenariosGunnar/]
2020-10-02T10:59:18,273  INFO Config:587 setting context to [file:/C:/Users/ChengxiL/git/scenariosGunnar/]
2020-10-02T10:59:18,305  INFO Config:587 setting context to [file:/C:/Users/ChengxiL/git/scenariosGunnar/]
2020-10-02T10:59:18,310  INFO Config:587 setting context to [file:/C:/Users/ChengxiL/git/scenariosGunnar/]
2020-10-02T10:59:18,313  INFO Config:587 setting context to [file:/C:/Users/ChengxiL/git/scenariosGunnar/]
2020-10-02T10:59:18,316  INFO Config:587 setting context to [file:/C:/Users/ChengxiL/git/scenariosGunnar/]
2020-10-02T10:59:18,320  INFO Config:587 setting context to [file:/C:/Users/ChengxiL/git/scenariosGunnar/]
2020-10-02T10:59:18,323  INFO Config:587 setting context to [file:/C:/Users/ChengxiL/git/scenariosGunnar/]
2020-10-02T10:59:18,327  INFO Config:587 setting context to [file:/C:/Users/ChengxiL/git/scenariosGunnar/]
2020-10-02T10:59:18,332  INFO Config:587 setting context to [file:/C:/Users/ChengxiL/git/scenariosGunnar/]
2020-10-02T10:59:18,387  INFO Config:587 setting context to [file:/C:/Users/ChengxiL/git/scenariosGunnar/]
2020-10-02T10:59:18,395  INFO Config:587 setting context to [file:/C:/Users/ChengxiL/git/scenariosGunnar/]
2020-10-02T10:59:18,399  INFO Config:587 setting context to [file:/C:/Users/ChengxiL/git/scenariosGunnar/]
2020-10-02T10:59:18,403  INFO Config:587 setting context to [file:/C:/Users/ChengxiL/git/scenariosGunnar/]
2020-10-02T10:59:18,421  INFO Config:587 setting context to [file:/C:/Users/ChengxiL/git/scenariosGunnar/]
2020-10-02T10:59:18,424  INFO Config:587 setting context to [file:/C:/Users/ChengxiL/git/scenariosGunnar/]
2020-10-02T10:59:18,463  INFO Config:587 setting context to [file:/C:/Users/ChengxiL/git/scenariosGunnar/]
2020-10-02T10:59:18,468  INFO Config:587 setting context to [file:/C:/Users/ChengxiL/git/scenariosGunnar/]
2020-10-02T10:59:18,477  INFO Config:587 setting context to [file:/C:/Users/ChengxiL/git/scenariosGunnar/]
2020-10-02T10:59:18,484  INFO Config:587 setting context to [file:/C:/Users/ChengxiL/git/scenariosGunnar/]
2020-10-02T10:59:18,487  INFO Config:587 setting context to [file:/C:/Users/ChengxiL/git/scenariosGunnar/]
2020-10-02T10:59:18,492  INFO Config:587 setting context to [file:/C:/Users/ChengxiL/git/scenariosGunnar/]
2020-10-02T10:59:18,495  INFO Config:587 setting context to [file:/C:/Users/ChengxiL/git/scenariosGunnar/]
2020-10-02T10:59:18,504  INFO TransitScheduleWriter:87 about to write transit schedule to: C:/Users/ChengxiL/git/scenariosGunnar/input-data/stockholm/bicycles/testScenario/outputBicyclePT/output_transitSchedule.xml.gz
2020-10-02T10:59:18,518  INFO MatsimVehicleWriter:54 about to write vehicles to: C:/Users/ChengxiL/git/scenariosGunnar/input-data/stockholm/bicycles/testScenario/outputBicyclePT/output_transitVehicles.xml.gz
2020-10-02T10:59:18,529  INFO VehicleWriterV2:63 about to write vehicles to: C:/Users/ChengxiL/git/scenariosGunnar/input-data/stockholm/bicycles/testScenario/outputBicyclePT/output_transitVehicles.xml.gz
2020-10-02T10:59:18,535  INFO MatsimVehicleWriter:54 about to write vehicles to: C:/Users/ChengxiL/git/scenariosGunnar/input-data/stockholm/bicycles/testScenario/outputBicyclePT/output_vehicles.xml.gz
2020-10-02T10:59:18,535  INFO VehicleWriterV2:63 about to write vehicles to: C:/Users/ChengxiL/git/scenariosGunnar/input-data/stockholm/bicycles/testScenario/outputBicyclePT/output_vehicles.xml.gz
2020-10-02T10:59:18,537  INFO VehicleUtils:328 adding scenario element for allvehicles container
2020-10-02T10:59:18,539  INFO HouseholdsWriterV10:66 about to write  households to: C:/Users/ChengxiL/git/scenariosGunnar/input-data/stockholm/bicycles/testScenario/outputBicyclePT/output_households.xml.gz
2020-10-02T10:59:18,541  INFO Counter:74 [HouseholdsWriter] wrote household # 0
2020-10-02T10:59:18,559 ERROR DumpDataAtEndImpl:187 writing output trips did not work; probably parameters were such that no trips CSV were generated in the final iteration
2020-10-02T10:59:18,559 ERROR DumpDataAtEndImpl:202 writing output trips did not work; probably parameters were such that no trips CSV were generated in the final iteration
2020-10-02T10:59:18,560  INFO ControlerListenerManagerImpl:126 calling notifyShutdown on org.matsim.analysis.ModeStatsControlerListener
2020-10-02T10:59:18,560  INFO ControlerListenerManagerImpl:126 calling notifyShutdown on org.matsim.analysis.ScoreStatsControlerListener
2020-10-02T10:59:18,560  INFO ControlerListenerManagerImpl:126 calling notifyShutdown on org.matsim.analysis.IterationTravelStatsControlerListener
2020-10-02T10:59:18,830  INFO IterationTravelStatsControlerListener:100 Writing all Person and Attributes to personscsv
2020-10-02T10:59:18,834  INFO IterationTravelStatsControlerListener:134 ...done
2020-10-02T10:59:18,834  INFO ControlerListenerManagerImpl:129 all ControlerShutdownListeners called.
2020-10-02T10:59:18,834  INFO MatsimRuntimeModifications:102 S H U T D O W N   ---   shutdown completed.
2020-10-02T10:59:18,835  INFO OutputDirectoryLogging:170 closing the logfile, i.e. messages sent to the logger after this message are not written to the logfile.
